data_md
_audit_creation_date              2024-03-12
_audit_creation_method            'Materials Studio'
_symmetry_space_group_name_H-M    'P1'
_symmetry_Int_Tables_number       1
_symmetry_cell_setting            triclinic
loop_
_symmetry_equiv_pos_as_xyz
  x,y,z
_cell_length_a                    34.7850
_cell_length_b                    34.7850
_cell_length_c                    34.7850
_cell_angle_alpha                 90.0000
_cell_angle_beta                  90.0000
_cell_angle_gamma                 90.0000
loop_
_atom_site_label
_atom_site_type_symbol
_atom_site_fract_x
_atom_site_fract_y
_atom_site_fract_z
_atom_site_U_iso_or_equiv
_atom_site_adp_type
_atom_site_occupancy
GAFF2_ca    C     0.63044   0.02271   0.72330   0.00000  Uiso   1.00
GAFF2_ca    C     0.63504   0.04858   0.69311   0.00000  Uiso   1.00
GAFF2_ca    C     0.59681   0.09889   0.72790   0.00000  Uiso   1.00
GAFF2_ca    C     0.61636   0.08567   0.69398   0.00000  Uiso   1.00
GAFF2_ca    C     0.61866   0.11097   0.66149   0.00000  Uiso   1.00
GAFF2_ca    C     0.57985   0.13598   0.72962   0.00000  Uiso   1.00
GAFF2_ca    C     0.65143   0.03680   0.65977   0.00000  Uiso   1.00
GAFF2_ca    C     0.65402   0.06095   0.62872   0.00000  Uiso   1.00
GAFF2_ca    C     0.58301   0.16185   0.69743   0.00000  Uiso   1.00
GAFF2_ca    C     0.60256   0.14891   0.66408   0.00000  Uiso   1.00
GAFF2_ca    C     0.63821   0.09832   0.62901   0.00000  Uiso   1.00
GAFF2_ca    C     0.64022   0.12333   0.59623   0.00000  Uiso   1.00
GAFF2_ca    C     0.60802   0.17249   0.63131   0.00000  Uiso   1.00
GAFF2_ca    C     0.62843   0.16041   0.59911   0.00000  Uiso   1.00
GAFF2_ca    C     0.60831   0.03507   0.75406   0.00000  Uiso   1.00
GAFF2_c2    C     0.66753   0.04168   0.59825   0.00000  Uiso   1.00
GAFF2_c2    C     0.66897   0.00374   0.64741   0.00000  Uiso   1.00
GAFF2_na    N     0.67443   0.00374   0.60745   0.00000  Uiso   1.00
GAFF2_hn    H     0.66408  -0.01840   0.59221   0.00000  Uiso   1.00
GAFF2_ca    C     0.59336   0.07216   0.75924   0.00000  Uiso   1.00
GAFF2_ha    H     0.59825   0.20210   0.63102   0.00000  Uiso   1.00
GAFF2_ha    H     0.57065   0.19089   0.69886   0.00000  Uiso   1.00
GAFF2_ha    H     0.65172   0.11039   0.57007   0.00000  Uiso   1.00
GAFF2_ha    H     0.64367  -0.00546   0.72560   0.00000  Uiso   1.00
GAFF2_h4    H     0.65574   0.04341   0.56921   0.00000  Uiso   1.00
GAFF2_h4    H     0.69254  -0.00891   0.66350   0.00000  Uiso   1.00
GAFF2_ha    H     0.59968   0.01207   0.77332   0.00000  Uiso   1.00
GAFF2_c3    C     0.56605   0.08107   0.79201   0.00000  Uiso   1.00
GAFF2_c3    C     0.56059   0.12448   0.80034   0.00000  Uiso   1.00
GAFF2_c3    C     0.55656   0.14863   0.76441   0.00000  Uiso   1.00
GAFF2_c3    C     0.62699   0.18715   0.56519   0.00000  Uiso   1.00
GAFF2_c3    C     0.59623   0.17738   0.53385   0.00000  Uiso   1.00
GAFF2_c3    C     0.58272   0.21417   0.51200   0.00000  Uiso   1.00
GAFF2_hc    H     0.60716   0.15409   0.51516   0.00000  Uiso   1.00
GAFF2_hc    H     0.65459   0.18859   0.54966   0.00000  Uiso   1.00
GAFF2_hc    H     0.62556   0.21705   0.57496   0.00000  Uiso   1.00
GAFF2_hc    H     0.56605   0.17623   0.77648   0.00000  Uiso   1.00
GAFF2_hc    H     0.53644   0.12534   0.82076   0.00000  Uiso   1.00
GAFF2_hc    H     0.58646   0.13397   0.81558   0.00000  Uiso   1.00
GAFF2_hc    H     0.57841   0.06900   0.81846   0.00000  Uiso   1.00
GAFF2_hc    H     0.53903   0.06555   0.78568   0.00000  Uiso   1.00
GAFF2_ca    C     0.33463   0.09056   0.61205   0.00000  Uiso   1.00
GAFF2_ca    C     0.35130   0.06353   0.63591   0.00000  Uiso   1.00
GAFF2_ca    C     0.33204   0.03162   0.64683   0.00000  Uiso   1.00
GAFF2_ca    C     0.38896   0.06813   0.65258   0.00000  Uiso   1.00
GAFF2_ca    C     0.41081   0.10407   0.64396   0.00000  Uiso   1.00
GAFF2_ca    C     0.39442   0.13109   0.61751   0.00000  Uiso   1.00
GAFF2_ca    C     0.35705   0.12390   0.60170   0.00000  Uiso   1.00
GAFF2_ca    C     0.34756   0.00144   0.67040   0.00000  Uiso   1.00
GAFF2_ca    C     0.40420   0.04283   0.67845   0.00000  Uiso   1.00
GAFF2_ca    C     0.38292   0.00776   0.68852   0.00000  Uiso   1.00
GAFF2_ca    C     0.43812  -0.01322   0.72732   0.00000  Uiso   1.00
GAFF2_ca    C     0.43898   0.04916   0.69944   0.00000  Uiso   1.00
GAFF2_ca    C     0.29438   0.02242   0.63303   0.00000  Uiso   1.00
GAFF2_ca    C     0.33003  -0.03565   0.67673   0.00000  Uiso   1.00
GAFF2_ca    C     0.34900  -0.06785   0.69398   0.00000  Uiso   1.00
GAFF2_ca    C     0.38580  -0.05951   0.71353   0.00000  Uiso   1.00
GAFF2_ca    C     0.40218  -0.02271   0.71008   0.00000  Uiso   1.00
GAFF2_h4    H     0.45278  -0.03134   0.74831   0.00000  Uiso   1.00
GAFF2_ca    C     0.44444   0.11413   0.66580   0.00000  Uiso   1.00
GAFF2_ca    C     0.45853   0.08538   0.69369   0.00000  Uiso   1.00
GAFF2_ca    C     0.27541   0.04945   0.60888   0.00000  Uiso   1.00
GAFF2_nb    N     0.45393   0.02329   0.72359   0.00000  Uiso   1.00
GAFF2_ca    C     0.29553   0.08366   0.59853   0.00000  Uiso   1.00
GAFF2_ha    H     0.28173   0.10551   0.58071   0.00000  Uiso   1.00
GAFF2_c3    C     0.49475   0.09573   0.71985   0.00000  Uiso   1.00
GAFF2_c3    C     0.48785   0.12563   0.75262   0.00000  Uiso   1.00
GAFF2_hc    H     0.48469   0.10867   0.77907   0.00000  Uiso   1.00
GAFF2_hc    H     0.45968   0.13828   0.74486   0.00000  Uiso   1.00
GAFF2_hc    H     0.51028   0.06957   0.72819   0.00000  Uiso   1.00
GAFF2_hc    H     0.51286   0.11154   0.69944   0.00000  Uiso   1.00
GAFF2_os    O     0.51660   0.15581   0.75435   0.00000  Uiso   1.00
GAFF2_ca    C     0.29294  -0.04025   0.66092   0.00000  Uiso   1.00
GAFF2_ca    C     0.27052  -0.07302   0.66667   0.00000  Uiso   1.00
GAFF2_ca    C     0.28748  -0.10263   0.68794   0.00000  Uiso   1.00
GAFF2_c3    C     0.26074  -0.13224   0.70404   0.00000  Uiso   1.00
GAFF2_c3    C     0.26563  -0.17450   0.68823   0.00000  Uiso   1.00
GAFF2_c3    C     0.24608  -0.17824   0.64712   0.00000  Uiso   1.00
GAFF2_c     C     0.20152  -0.17824   0.64252   0.00000  Uiso   1.00
GAFF2_hc    H     0.25931  -0.15581   0.62872   0.00000  Uiso   1.00
GAFF2_hc    H     0.29610  -0.18169   0.68449   0.00000  Uiso   1.00
GAFF2_hc    H     0.25270  -0.19664   0.70663   0.00000  Uiso   1.00
GAFF2_hc    H     0.23171  -0.12103   0.69886   0.00000  Uiso   1.00
GAFF2_hc    H     0.26621  -0.13569   0.73509   0.00000  Uiso   1.00
GAFF2_ha    H     0.24091  -0.07446   0.65689   0.00000  Uiso   1.00
GAFF2_c3    C     0.23487   0.03852   0.58818   0.00000  Uiso   1.00
GAFF2_c3    C     0.19721   0.06353   0.59968   0.00000  Uiso   1.00
GAFF2_c3    C     0.15811   0.04370   0.59163   0.00000  Uiso   1.00
GAFF2_os    O     0.15581   0.03450   0.55110   0.00000  Uiso   1.00
GAFF2_c3    C     0.13425   0.00029   0.53816   0.00000  Uiso   1.00
GAFF2_c3    C     0.15696  -0.03594   0.55052   0.00000  Uiso   1.00
GAFF2_ca    C     0.12103  -0.07043   0.49389   0.00000  Uiso   1.00
GAFF2_hc    H     0.15754  -0.03651   0.58215   0.00000  Uiso   1.00
GAFF2_hc    H     0.18657  -0.03680   0.53989   0.00000  Uiso   1.00
GAFF2_hc    H     0.10464   0.00316   0.54880   0.00000  Uiso   1.00
GAFF2_hc    H     0.13368   0.06037   0.60313   0.00000  Uiso   1.00
GAFF2_hc    H     0.15869   0.01725   0.60860   0.00000  Uiso   1.00
GAFF2_hc    H     0.19549   0.06842   0.63102   0.00000  Uiso   1.00
GAFF2_hc    H     0.19462   0.08998   0.58301   0.00000  Uiso   1.00
GAFF2_hc    H     0.23027   0.00747   0.59163   0.00000  Uiso   1.00
GAFF2_hc    H     0.24120   0.04571   0.55800   0.00000  Uiso   1.00
GAFF2_c3    C     0.41886   0.16559   0.60400   0.00000  Uiso   1.00
GAFF2_c3    C     0.46141   0.16501   0.61118   0.00000  Uiso   1.00
GAFF2_c3    C     0.48555   0.13454   0.58646   0.00000  Uiso   1.00
GAFF2_hc    H     0.48153   0.10493   0.59681   0.00000  Uiso   1.00
GAFF2_hc    H     0.51631   0.14058   0.59163   0.00000  Uiso   1.00
GAFF2_hc    H     0.47492   0.19347   0.60802   0.00000  Uiso   1.00
GAFF2_hc    H     0.40908   0.19261   0.61693   0.00000  Uiso   1.00
GAFF2_hc    H     0.41742   0.16818   0.57237   0.00000  Uiso   1.00
GAFF2_c3    C     0.52379   0.17306   0.48527   0.00000  Uiso   1.00
GAFF2_c3    C     0.48067   0.13512   0.54190   0.00000  Uiso   1.00
GAFF2_ss    S     0.49217   0.18542   0.52551   0.00000  Uiso   1.00
GAFF2_hc    H     0.45048   0.12764   0.53558   0.00000  Uiso   1.00
GAFF2_c3    C     0.55426   0.20526   0.47607   0.00000  Uiso   1.00
GAFF2_c     C     0.53213   0.24120   0.45853   0.00000  Uiso   1.00
GAFF2_c3    C     0.50683   0.26793   0.48124   0.00000  Uiso   1.00
GAFF2_hc    H     0.52149   0.29582   0.48268   0.00000  Uiso   1.00
GAFF2_hc    H     0.50683   0.25499   0.51028   0.00000  Uiso   1.00
GAFF2_hc    H     0.57237   0.19204   0.45393   0.00000  Uiso   1.00
GAFF2_ca    C     0.06583  -0.02587   0.36050   0.00000  Uiso   1.00
GAFF2_ca    C     0.08423  -0.06497   0.42058   0.00000  Uiso   1.00
GAFF2_ca    C     0.06583  -0.06095   0.38350   0.00000  Uiso   1.00
GAFF2_ca    C     0.04628  -0.09257   0.36855   0.00000  Uiso   1.00
GAFF2_ca    C     0.08423  -0.10177   0.44099   0.00000  Uiso   1.00
GAFF2_ca    C     0.04140  -0.02357   0.32658   0.00000  Uiso   1.00
GAFF2_ca    C     0.02242  -0.05491   0.31364   0.00000  Uiso   1.00
GAFF2_ca    C     0.05980  -0.13109   0.42633   0.00000  Uiso   1.00
GAFF2_ca    C     0.04370  -0.12735   0.39040   0.00000  Uiso   1.00
GAFF2_ca    C     0.02587  -0.09056   0.33290   0.00000  Uiso   1.00
GAFF2_ca    C     0.10407   0.00172   0.41282   0.00000  Uiso   1.00
GAFF2_c2    C     0.00546  -0.04370   0.28029   0.00000  Uiso   1.00
GAFF2_c2    C     0.02961   0.00862   0.30617   0.00000  Uiso   1.00
GAFF2_na    N     0.00776  -0.00402   0.27368   0.00000  Uiso   1.00
GAFF2_hn    H     0.00287   0.00920   0.24838   0.00000  Uiso   1.00
GAFF2_ca    C     0.10119  -0.03220   0.43726   0.00000  Uiso   1.00
GAFF2_ca    C     0.11643  -0.03249   0.47607   0.00000  Uiso   1.00
GAFF2_ca    C     0.14748  -0.10896   0.54478   0.00000  Uiso   1.00
GAFF2_ca    C     0.13742  -0.14288   0.52580   0.00000  Uiso   1.00
GAFF2_ca    C     0.11470  -0.14173   0.49159   0.00000  Uiso   1.00
GAFF2_ca    C     0.08481   0.00661   0.37545   0.00000  Uiso   1.00
GAFF2_ha    H     0.02932  -0.15265   0.37919   0.00000  Uiso   1.00
GAFF2_ha    H     0.00862  -0.11355   0.32054   0.00000  Uiso   1.00
GAFF2_h4    H     0.01581   0.03162   0.32227   0.00000  Uiso   1.00
GAFF2_ha    H     0.16444  -0.11212   0.57094   0.00000  Uiso   1.00
GAFF2_ha    H     0.11787   0.02702   0.42547   0.00000  Uiso   1.00
GAFF2_c3    C    -0.01754  -0.06727   0.25270   0.00000  Uiso   1.00
GAFF2_c3    C    -0.06123  -0.07359   0.26304   0.00000  Uiso   1.00
GAFF2_c3    C    -0.08164  -0.04111   0.28489   0.00000  Uiso   1.00
GAFF2_c     C    -0.06928  -0.04312   0.32629   0.00000  Uiso   1.00
GAFF2_o     O    -0.06555  -0.07331   0.34440   0.00000  Uiso   1.00
GAFF2_c3    C    -0.08021  -0.00719   0.34756   0.00000  Uiso   1.00
GAFF2_c3    C    -0.06325   0.00144   0.38695   0.00000  Uiso   1.00
GAFF2_c3    C    -0.07388   0.04370   0.39902   0.00000  Uiso   1.00
GAFF2_hc    H    -0.07762   0.03938   0.43036   0.00000  Uiso   1.00
GAFF2_hc    H    -0.03220  -0.00431   0.38839   0.00000  Uiso   1.00
GAFF2_hc    H    -0.07676  -0.01754   0.40793   0.00000  Uiso   1.00
GAFF2_hc    H    -0.07072   0.01696   0.32945   0.00000  Uiso   1.00
GAFF2_hc    H    -0.07273  -0.01322   0.27253   0.00000  Uiso   1.00
GAFF2_hc    H    -0.06382  -0.10062   0.27886   0.00000  Uiso   1.00
GAFF2_hc    H    -0.00172  -0.09458   0.24925   0.00000  Uiso   1.00
GAFF2_hc    H    -0.01667  -0.05347   0.22452   0.00000  Uiso   1.00
GAFF2_ca    C    -0.12304   0.09832   0.38982   0.00000  Uiso   1.00
GAFF2_ca    C    -0.16243   0.10924   0.38580   0.00000  Uiso   1.00
GAFF2_ca    C    -0.19232   0.08078   0.37947   0.00000  Uiso   1.00
GAFF2_ca    C    -0.11413   0.05893   0.38465   0.00000  Uiso   1.00
GAFF2_ca    C    -0.23803   0.13224   0.38896   0.00000  Uiso   1.00
GAFF2_ca    C    -0.14144   0.03105   0.37142   0.00000  Uiso   1.00
GAFF2_ca    C    -0.22998   0.09372   0.37947   0.00000  Uiso   1.00
GAFF2_ca    C    -0.10263   0.16444   0.39586   0.00000  Uiso   1.00
GAFF2_ca    C    -0.09228   0.12563   0.39644   0.00000  Uiso   1.00
GAFF2_ca    C    -0.05117   0.11499   0.39644   0.00000  Uiso   1.00
GAFF2_ca    C    -0.07273   0.19290   0.39874   0.00000  Uiso   1.00
GAFF2_ca    C    -0.03364   0.18197   0.40017   0.00000  Uiso   1.00
GAFF2_ca    C    -0.02185   0.14317   0.39902   0.00000  Uiso   1.00
GAFF2_ca    C    -0.14317   0.17565   0.39471   0.00000  Uiso   1.00
GAFF2_ha    H    -0.01265   0.20526   0.40132   0.00000  Uiso   1.00
GAFF2_ca    C    -0.25816   0.06353   0.37487   0.00000  Uiso   1.00
GAFF2_ca    C    -0.24810   0.02444   0.36970   0.00000  Uiso   1.00
GAFF2_nb    N    -0.20986   0.15955   0.39155   0.00000  Uiso   1.00
GAFF2_ca    C    -0.18054   0.04197   0.37142   0.00000  Uiso   1.00
GAFF2_ca    C    -0.20929   0.01495   0.36912   0.00000  Uiso   1.00
GAFF2_ca    C    -0.17163   0.14719   0.39011   0.00000  Uiso   1.00
GAFF2_c3    C    -0.30128   0.06698   0.38149   0.00000  Uiso   1.00
GAFF2_c3    C    -0.31882   0.02760   0.37746   0.00000  Uiso   1.00
GAFF2_c3    C    -0.35015   0.02099   0.40707   0.00000  Uiso   1.00
GAFF2_hc    H    -0.36912   0.04628   0.41081   0.00000  Uiso   1.00
GAFF2_hc    H    -0.37142  -0.00115   0.39902   0.00000  Uiso   1.00
GAFF2_hc    H    -0.33319   0.02875   0.34929   0.00000  Uiso   1.00
GAFF2_hc    H    -0.30530   0.07618   0.41138   0.00000  Uiso   1.00
GAFF2_hc    H    -0.31019   0.08941   0.36108   0.00000  Uiso   1.00
GAFF2_h4    H    -0.26736   0.14345   0.39097   0.00000  Uiso   1.00
GAFF2_ha    H    -0.14978   0.20612   0.39787   0.00000  Uiso   1.00
GAFF2_ha    H    -0.08136   0.22280   0.39960   0.00000  Uiso   1.00
GAFF2_ha    H    -0.20325  -0.01552   0.37056   0.00000  Uiso   1.00
GAFF2_c3    C     0.02185   0.13684   0.39960   0.00000  Uiso   1.00
GAFF2_c3    C     0.03450   0.11844   0.43754   0.00000  Uiso   1.00
GAFF2_c3    C     0.07474   0.12908   0.44991   0.00000  Uiso   1.00
GAFF2_hc    H     0.08394   0.11844   0.47837   0.00000  Uiso   1.00
GAFF2_hc    H     0.09458   0.11844   0.42777   0.00000  Uiso   1.00
GAFF2_hc    H     0.01409   0.12304   0.46141   0.00000  Uiso   1.00
GAFF2_hc    H     0.03019   0.08711   0.43582   0.00000  Uiso   1.00
GAFF2_hc    H     0.02645   0.11787   0.37487   0.00000  Uiso   1.00
GAFF2_os    O    -0.33348   0.01035   0.44502   0.00000  Uiso   1.00
GAFF2_c3    C    -0.33635   0.03479   0.47607   0.00000  Uiso   1.00
GAFF2_c3    C    -0.29725   0.03277   0.49763   0.00000  Uiso   1.00
GAFF2_c3    C    -0.26161   0.05146   0.48067   0.00000  Uiso   1.00
GAFF2_c3    C    -0.26132   0.09774   0.48412   0.00000  Uiso   1.00
GAFF2_hc    H    -0.28029   0.11240   0.50482   0.00000  Uiso   1.00
GAFF2_hc    H    -0.27167   0.10982   0.45681   0.00000  Uiso   1.00
GAFF2_hc    H    -0.25672   0.04571   0.44991   0.00000  Uiso   1.00
GAFF2_hc    H    -0.30070   0.04571   0.52609   0.00000  Uiso   1.00
GAFF2_hc    H    -0.29064   0.00230   0.50252   0.00000  Uiso   1.00
GAFF2_hc    H    -0.34670   0.06411   0.46974   0.00000  Uiso   1.00
GAFF2_hc    H    -0.35878   0.02415   0.49562   0.00000  Uiso   1.00
GAFF2_ca    C    -0.07589   0.08826   0.52293   0.00000  Uiso   1.00
GAFF2_ca    C    -0.10062   0.12103   0.51401   0.00000  Uiso   1.00
GAFF2_ca    C    -0.09286   0.05203   0.52580   0.00000  Uiso   1.00
GAFF2_ca    C     0.03565   0.11729   0.57525   0.00000  Uiso   1.00
GAFF2_ca    C     0.07245   0.12390   0.59048   0.00000  Uiso   1.00
GAFF2_ca    C     0.09142   0.15610   0.57784   0.00000  Uiso   1.00
GAFF2_ca    C    -0.14115   0.11614   0.50855   0.00000  Uiso   1.00
GAFF2_ca    C    -0.13483   0.04657   0.52034   0.00000  Uiso   1.00
GAFF2_ca    C    -0.15754   0.07906   0.51028   0.00000  Uiso   1.00
GAFF2_ca    C    -0.08308   0.15811   0.51085   0.00000  Uiso   1.00
GAFF2_ca    C    -0.16501   0.14949   0.49878   0.00000  Uiso   1.00
GAFF2_ca    C    -0.20469   0.14259   0.49044   0.00000  Uiso   1.00
GAFF2_ca    C    -0.22021   0.10694   0.49245   0.00000  Uiso   1.00
GAFF2_ca    C    -0.19664   0.07388   0.50194   0.00000  Uiso   1.00
GAFF2_hc    H     0.01984   0.05491   0.51833   0.00000  Uiso   1.00
GAFF2_ca    C    -0.04341   0.16386   0.51718   0.00000  Uiso   1.00
GAFF2_ca    C    -0.01984   0.13167   0.53155   0.00000  Uiso   1.00
GAFF2_ca    C    -0.14748   0.18657   0.49130   0.00000  Uiso   1.00
GAFF2_ca    C    -0.10637   0.19002   0.49619   0.00000  Uiso   1.00
GAFF2_ca    C    -0.02587   0.20037   0.51143   0.00000  Uiso   1.00
GAFF2_ca    C    -0.04916   0.23085   0.49562   0.00000  Uiso   1.00
GAFF2_ca    C    -0.08912   0.22452   0.48900   0.00000  Uiso   1.00
GAFF2_ca    C     0.01897   0.13972   0.54535   0.00000  Uiso   1.00
GAFF2_ca    C     0.03594   0.17565   0.53615   0.00000  Uiso   1.00
GAFF2_ca    C     0.01524   0.20497   0.51545   0.00000  Uiso   1.00
GAFF2_c3    C    -0.03076   0.27167   0.48584   0.00000  Uiso   1.00
GAFF2_hc    H    -0.03191   0.29265   0.50941   0.00000  Uiso   1.00
GAFF2_hc    H    -0.04542   0.28662   0.46227   0.00000  Uiso   1.00
GAFF2_ca    C    -0.03450   0.09343   0.52810   0.00000  Uiso   1.00
GAFF2_ha    H    -0.10464   0.24838   0.47607   0.00000  Uiso   1.00
GAFF2_ha    H    -0.14690   0.01754   0.52120   0.00000  Uiso   1.00
GAFF2_ha    H    -0.22366   0.16386   0.47779   0.00000  Uiso   1.00
GAFF2_c3    C    -0.17421   0.22078   0.48440   0.00000  Uiso   1.00
GAFF2_c3    C    -0.18744   0.24321   0.51976   0.00000  Uiso   1.00
GAFF2_hc    H    -0.20555   0.22423   0.53759   0.00000  Uiso   1.00
GAFF2_hc    H    -0.19865   0.21130   0.46658   0.00000  Uiso   1.00
GAFF2_c3    C     0.01092   0.26621   0.47204   0.00000  Uiso   1.00
GAFF2_os    O     0.02674   0.30444   0.46946   0.00000  Uiso   1.00
GAFF2_c3    C     0.06411   0.31249   0.45393   0.00000  Uiso   1.00
GAFF2_c3    C     0.09142   0.31508   0.48843   0.00000  Uiso   1.00
GAFF2_c3    C     0.08538   0.34440   0.52120   0.00000  Uiso   1.00
GAFF2_hc    H     0.10608   0.34009   0.54478   0.00000  Uiso   1.00
GAFF2_hc    H     0.05778   0.34296   0.53644   0.00000  Uiso   1.00
GAFF2_hc    H     0.09573   0.28547   0.49907   0.00000  Uiso   1.00
GAFF2_hc    H     0.11988   0.32370   0.47750   0.00000  Uiso   1.00
GAFF2_hc    H     0.06325   0.34153   0.44099   0.00000  Uiso   1.00
GAFF2_hc    H     0.07245   0.29036   0.43295   0.00000  Uiso   1.00
GAFF2_ca    C     0.19347   0.11758   0.50884   0.00000  Uiso   1.00
GAFF2_ca    C     0.21360   0.15121   0.51516   0.00000  Uiso   1.00
GAFF2_ca    C     0.27339   0.18830   0.49964   0.00000  Uiso   1.00
GAFF2_ca    C     0.30617   0.18715   0.47377   0.00000  Uiso   1.00
GAFF2_ca    C     0.24838   0.15840   0.49360   0.00000  Uiso   1.00
GAFF2_ca    C     0.26046   0.13397   0.46371   0.00000  Uiso   1.00
GAFF2_ss    S     0.30042   0.15064   0.43869   0.00000  Uiso   1.00
GAFF2_ca    C     0.26908   0.21389   0.53069   0.00000  Uiso   1.00
GAFF2_ca    C     0.30272   0.23688   0.53989   0.00000  Uiso   1.00
GAFF2_c3    C     0.29984   0.26592   0.57467   0.00000  Uiso   1.00
GAFF2_hc    H     0.32658   0.26103   0.59106   0.00000  Uiso   1.00
GAFF2_hc    H     0.27799   0.25902   0.59652   0.00000  Uiso   1.00
GAFF2_c3    C     0.29495   0.30760   0.56605   0.00000  Uiso   1.00
GAFF2_c3    C     0.24321   0.37372   0.55656   0.00000  Uiso   1.00
GAFF2_c3    C     0.22481   0.41512   0.54621   0.00000  Uiso   1.00
GAFF2_c3    C     0.15093   0.56979   0.39759   0.00000  Uiso   1.00
GAFF2_c3    C     0.13109   0.58215   0.43726   0.00000  Uiso   1.00
GAFF2_ca    C    -0.00057   0.45824   0.45623   0.00000  Uiso   1.00
GAFF2_ca    C    -0.00834   0.41857   0.46744   0.00000  Uiso   1.00
GAFF2_ca    C     0.05778   0.41052   0.49159   0.00000  Uiso   1.00
GAFF2_ca    C     0.02156   0.39500   0.48469   0.00000  Uiso   1.00
GAFF2_ca    C     0.08826   0.38810   0.50884   0.00000  Uiso   1.00
GAFF2_ca    C    -0.02817   0.48642   0.43754   0.00000  Uiso   1.00
GAFF2_ca    C    -0.01409   0.52005   0.42087   0.00000  Uiso   1.00
GAFF2_ca    C     0.02214   0.53040   0.42835   0.00000  Uiso   1.00
GAFF2_ca    C     0.02616   0.56864   0.42145   0.00000  Uiso   1.00
GAFF2_c2    C    -0.03479   0.55369   0.40851   0.00000  Uiso   1.00
GAFF2_na    N    -0.00834   0.58243   0.40880   0.00000  Uiso   1.00
GAFF2_c3    C    -0.07532   0.55829   0.42317   0.00000  Uiso   1.00
GAFF2_c3    C    -0.08624   0.53040   0.45652   0.00000  Uiso   1.00
GAFF2_c3    C    -0.07848   0.54449   0.49734   0.00000  Uiso   1.00
GAFF2_c3    C    -0.03536   0.55167   0.50453   0.00000  Uiso   1.00
GAFF2_hc    H    -0.01926   0.52436   0.50597   0.00000  Uiso   1.00
GAFF2_hc    H    -0.03249   0.56404   0.53356   0.00000  Uiso   1.00
GAFF2_hc    H    -0.09343   0.52494   0.51718   0.00000  Uiso   1.00
GAFF2_hc    H    -0.09401   0.54937   0.39931   0.00000  Uiso   1.00
GAFF2_hc    H    -0.08423   0.58703   0.43266   0.00000  Uiso   1.00
GAFF2_hn    H    -0.00891   0.60802   0.39500   0.00000  Uiso   1.00
GAFF2_ha    H     0.01495   0.36596   0.49475   0.00000  Uiso   1.00
GAFF2_ca    C     0.09199   0.56605   0.44329   0.00000  Uiso   1.00
GAFF2_hc    H    -0.09199   0.57295   0.49907   0.00000  Uiso   1.00
GAFF2_hc    H    -0.11758   0.52609   0.45479   0.00000  Uiso   1.00
GAFF2_hc    H     0.13253   0.61377   0.43898   0.00000  Uiso   1.00
GAFF2_hc    H     0.15093   0.57467   0.46054   0.00000  Uiso   1.00
GAFF2_hc    H     0.17709   0.55254   0.40218   0.00000  Uiso   1.00
GAFF2_hc    H     0.15840   0.59595   0.38149   0.00000  Uiso   1.00
GAFF2_hc    H     0.24522   0.43640   0.53500   0.00000  Uiso   1.00
GAFF2_hc    H     0.07733   0.16070   0.44904   0.00000  Uiso   1.00
GAFF2_ca    C     0.33865   0.21331   0.48009   0.00000  Uiso   1.00
GAFF2_ca    C     0.33750   0.23717   0.51488   0.00000  Uiso   1.00
GAFF2_ca    C     0.10579  -0.10436   0.47607   0.00000  Uiso   1.00
GAFF2_ca    C     0.23746   0.10206   0.45393   0.00000  Uiso   1.00
GAFF2_ca    C     0.20641   0.09171   0.47808   0.00000  Uiso   1.00
GAFF2_ha    H     0.19175   0.06411   0.47549   0.00000  Uiso   1.00
GAFF2_ha    H     0.24953   0.08222   0.43295   0.00000  Uiso   1.00
GAFF2_ha    H     0.10723  -0.16961   0.47865   0.00000  Uiso   1.00
GAFF2_ca    C     0.04801   0.50827   0.44789   0.00000  Uiso   1.00
GAFF2_ca    C     0.03766   0.47147   0.46112   0.00000  Uiso   1.00
GAFF2_ca    C     0.06670   0.44847   0.47750   0.00000  Uiso   1.00
GAFF2_ca    C     0.10579   0.46457   0.48325   0.00000  Uiso   1.00
GAFF2_ca    C     0.12362   0.40563   0.51373   0.00000  Uiso   1.00
GAFF2_ca    C     0.13339   0.44157   0.50309   0.00000  Uiso   1.00
GAFF2_ca    C     0.11413   0.50309   0.47176   0.00000  Uiso   1.00
GAFF2_ca    C     0.08452   0.52523   0.45336   0.00000  Uiso   1.00
GAFF2_ha    H     0.14288   0.51459   0.47520   0.00000  Uiso   1.00
GAFF2_c3    C    -0.04485   0.39615   0.46256   0.00000  Uiso   1.00
GAFF2_c3    C    -0.06152   0.38724   0.50338   0.00000  Uiso   1.00
GAFF2_c3    C    -0.10407   0.37631   0.50050   0.00000  Uiso   1.00
GAFF2_hc    H    -0.11873   0.39960   0.48527   0.00000  Uiso   1.00
GAFF2_hc    H    -0.10666   0.34843   0.48527   0.00000  Uiso   1.00
GAFF2_hc    H    -0.11643   0.37631   0.52954   0.00000  Uiso   1.00
GAFF2_hc    H    -0.04600   0.36567   0.52063   0.00000  Uiso   1.00
GAFF2_hc    H    -0.03795   0.36912   0.44732   0.00000  Uiso   1.00
GAFF2_hc    H     0.50683   0.16703   0.45911   0.00000  Uiso   1.00
GAFF2_ha    H     0.16645   0.11183   0.52350   0.00000  Uiso   1.00
GAFF2_hc    H    -0.00287   0.04743   0.56231   0.00000  Uiso   1.00
GAFF2_os    O     0.09631   0.21389   0.54363   0.00000  Uiso   1.00
GAFF2_c3    C     0.13770   0.22280   0.55254   0.00000  Uiso   1.00
GAFF2_c3    C     0.16128   0.19577   0.52753   0.00000  Uiso   1.00
GAFF2_c3    C     0.19836   0.18140   0.54449   0.00000  Uiso   1.00
GAFF2_hc    H     0.19290   0.16818   0.57266   0.00000  Uiso   1.00
GAFF2_hc    H     0.16731   0.20785   0.49907   0.00000  Uiso   1.00
GAFF2_hc    H     0.14403   0.17019   0.52063   0.00000  Uiso   1.00
GAFF2_hc    H     0.14230   0.25270   0.54334   0.00000  Uiso   1.00
GAFF2_hc    H     0.14288   0.22021   0.58358   0.00000  Uiso   1.00
GAFF2_hc    H     0.53903   0.14748   0.49562   0.00000  Uiso   1.00
GAFF2_hc    H     0.50050   0.11499   0.52781   0.00000  Uiso   1.00
GAFF2_ca    C     0.32572  -0.10234   0.69944   0.00000  Uiso   1.00
GAFF2_ha    H     0.33233  -0.12505   0.72014   0.00000  Uiso   1.00
GAFF2_hc    H     0.25614  -0.20526   0.63418   0.00000  Uiso   1.00
GAFF2_hc    H     0.57266   0.16271   0.54909   0.00000  Uiso   1.00
GAFF2_hc    H     0.21446   0.42950   0.57237   0.00000  Uiso   1.00
GAFF2_hc    H    -0.16214   0.24781   0.53845   0.00000  Uiso   1.00
GAFF2_hc    H    -0.16185   0.24148   0.46371   0.00000  Uiso   1.00
GAFF2_hc    H     0.01150   0.25385   0.44301   0.00000  Uiso   1.00
GAFF2_hc    H    -0.07589  -0.08107   0.23602   0.00000  Uiso   1.00
GAFF2_hc    H    -0.06037   0.41455   0.51919   0.00000  Uiso   1.00
GAFF2_hc    H    -0.06497   0.41081   0.44301   0.00000  Uiso   1.00
GAFF2_c3    C     0.37372   0.20986   0.45451   0.00000  Uiso   1.00
GAFF2_c3    C     0.41023   0.22883   0.47176   0.00000  Uiso   1.00
GAFF2_c3    C     0.39787   0.26908   0.48642   0.00000  Uiso   1.00
GAFF2_c3    C     0.37229   0.26534   0.52264   0.00000  Uiso   1.00
GAFF2_hc    H     0.37775   0.17910   0.44876   0.00000  Uiso   1.00
GAFF2_hc    H     0.36711   0.22165   0.42605   0.00000  Uiso   1.00
GAFF2_hc    H     0.42116   0.21331   0.49734   0.00000  Uiso   1.00
GAFF2_hc    H     0.38149   0.28058   0.46198   0.00000  Uiso   1.00
GAFF2_hc    H     0.38580   0.25385   0.54851   0.00000  Uiso   1.00
GAFF2_hc    H     0.36079   0.29438   0.52724   0.00000  Uiso   1.00
GAFF2_c3    C     0.27483   0.31623   0.52724   0.00000  Uiso   1.00
GAFF2_c3    C     0.26879   0.36999   0.59393   0.00000  Uiso   1.00
GAFF2_c3    C     0.26736   0.35820   0.52120   0.00000  Uiso   1.00
GAFF2_hc    H     0.21992   0.35245   0.56087   0.00000  Uiso   1.00
GAFF2_hc    H     0.24723   0.30099   0.52781   0.00000  Uiso   1.00
GAFF2_hc    H     0.29179   0.30387   0.50338   0.00000  Uiso   1.00
GAFF2_hc    H     0.25729   0.38292   0.62038   0.00000  Uiso   1.00
GAFF2_hc    H     0.29754   0.38292   0.59163   0.00000  Uiso   1.00
GAFF2_hc    H     0.25040   0.36194   0.49475   0.00000  Uiso   1.00
GAFF2_hc    H     0.29352   0.37602   0.51919   0.00000  Uiso   1.00
GAFF2_hc    H     0.32313   0.32198   0.56691   0.00000  Uiso   1.00
GAFF2_c3    C     0.44444   0.23775   0.44473   0.00000  Uiso   1.00
GAFF2_c3    C     0.43438   0.29093   0.49504   0.00000  Uiso   1.00
GAFF2_c3    C     0.46399   0.27368   0.46256   0.00000  Uiso   1.00
GAFF2_hc    H     0.46284   0.21216   0.44301   0.00000  Uiso   1.00
GAFF2_hc    H     0.43553   0.24263   0.41483   0.00000  Uiso   1.00
GAFF2_hc    H     0.44904   0.28231   0.52178   0.00000  Uiso   1.00
GAFF2_hc    H     0.43093   0.32198   0.49188   0.00000  Uiso   1.00
GAFF2_hc    H     0.46888   0.29352   0.43812   0.00000  Uiso   1.00
GAFF2_o     O     0.53443   0.24982   0.42346   0.00000  Uiso   1.00
GAFF2_hc    H     0.60975   0.22797   0.50280   0.00000  Uiso   1.00
GAFF2_hc    H     0.56576   0.22998   0.53356   0.00000  Uiso   1.00
GAFF2_ca    C     0.06095   0.58761   0.42605   0.00000  Uiso   1.00
GAFF2_ha    H     0.06526   0.61722   0.41656   0.00000  Uiso   1.00
GAFF2_os    O     0.17220   0.44933   0.50740   0.00000  Uiso   1.00
GAFF2_c3    C     0.03651  -0.15524   0.45451   0.00000  Uiso   1.00
GAFF2_hc    H     0.05002  -0.16214   0.48210   0.00000  Uiso   1.00
GAFF2_hc    H     0.02645  -0.18197   0.44099   0.00000  Uiso   1.00
GAFF2_c3    C     0.09314   0.04485   0.35360   0.00000  Uiso   1.00
GAFF2_hc    H     0.06756   0.06210   0.34728   0.00000  Uiso   1.00
GAFF2_hc    H     0.10752   0.04025   0.32572   0.00000  Uiso   1.00
GAFF2_hc    H     0.11097   0.06497   0.37027   0.00000  Uiso   1.00
GAFF2_c3    C     0.19031   0.41110   0.51718   0.00000  Uiso   1.00
GAFF2_hc    H     0.19951   0.40017   0.48872   0.00000  Uiso   1.00
GAFF2_os    O     0.27397   0.32830   0.59681   0.00000  Uiso   1.00
GAFF2_hc    H    -0.01897   0.57122   0.48584   0.00000  Uiso   1.00
GAFF2_c3    C    -0.03019   0.02242   0.51315   0.00000  Uiso   1.00
GAFF2_c3    C    -0.01150  -0.01552   0.50798   0.00000  Uiso   1.00
GAFF2_c3    C    -0.06986   0.01524   0.53213   0.00000  Uiso   1.00
GAFF2_c3    C    -0.08078  -0.02271   0.51229   0.00000  Uiso   1.00
GAFF2_c3    C    -0.04255  -0.04686   0.51689   0.00000  Uiso   1.00
GAFF2_hc    H    -0.03421   0.03191   0.48325   0.00000  Uiso   1.00
GAFF2_hc    H     0.00230  -0.02041   0.48009   0.00000  Uiso   1.00
GAFF2_hc    H     0.01207  -0.01667   0.52896   0.00000  Uiso   1.00
GAFF2_hc    H    -0.06641   0.01121   0.56317   0.00000  Uiso   1.00
GAFF2_hc    H    -0.08912  -0.01610   0.48239   0.00000  Uiso   1.00
GAFF2_hc    H    -0.10551  -0.03881   0.52408   0.00000  Uiso   1.00
GAFF2_hc    H    -0.03766  -0.05462   0.54707   0.00000  Uiso   1.00
GAFF2_c3    C     0.40793  -0.09257   0.73652   0.00000  Uiso   1.00
GAFF2_hc    H     0.41311  -0.11557   0.71554   0.00000  Uiso   1.00
GAFF2_hc    H     0.39155  -0.10493   0.76067   0.00000  Uiso   1.00
GAFF2_hc    H     0.43467  -0.08394   0.75119   0.00000  Uiso   1.00
GAFF2_os    O     0.00230  -0.13425   0.46457   0.00000  Uiso   1.00
GAFF2_c3    C     0.00374  -0.09889   0.48584   0.00000  Uiso   1.00
GAFF2_c3    C    -0.03852  -0.08337   0.48814   0.00000  Uiso   1.00
GAFF2_hc    H     0.01380  -0.10292   0.51545   0.00000  Uiso   1.00
GAFF2_hc    H     0.02357  -0.07819   0.47233   0.00000  Uiso   1.00
GAFF2_hc    H    -0.04628  -0.07359   0.45911   0.00000  Uiso   1.00
GAFF2_hc    H    -0.05778  -0.10522   0.50022   0.00000  Uiso   1.00
GAFF2_hc    H    -0.20152   0.27138   0.51833   0.00000  Uiso   1.00
GAFF2_c3    C     0.03536   0.24091   0.49993   0.00000  Uiso   1.00
GAFF2_hc    H     0.06008   0.22740   0.48584   0.00000  Uiso   1.00
GAFF2_hc    H     0.04456   0.25672   0.52551   0.00000  Uiso   1.00
GAFF2_c3    C    -0.04140   0.07302   0.38982   0.00000  Uiso   1.00
GAFF2_hc    H    -0.03076   0.06670   0.36079   0.00000  Uiso   1.00
GAFF2_hc    H    -0.01725   0.06612   0.40937   0.00000  Uiso   1.00
GAFF2_c3    C    -0.12563  -0.00431   0.34986   0.00000  Uiso   1.00
GAFF2_hc    H    -0.13483  -0.02990   0.36596   0.00000  Uiso   1.00
GAFF2_c3    C     0.13080   0.00431   0.49504   0.00000  Uiso   1.00
GAFF2_hc    H     0.15840   0.01437   0.48297   0.00000  Uiso   1.00
GAFF2_hc    H     0.10953   0.02702   0.49015   0.00000  Uiso   1.00
GAFF2_hc    H     0.13282   0.55139   0.37919   0.00000  Uiso   1.00
GAFF2_c3    C     0.46543   0.15294   0.65545   0.00000  Uiso   1.00
GAFF2_hc    H     0.45537   0.17536   0.67529   0.00000  Uiso   1.00
GAFF2_hc    H     0.49677   0.15035   0.65977   0.00000  Uiso   1.00
GAFF2_c3    C    -0.22395   0.03910   0.50597   0.00000  Uiso   1.00
GAFF2_hc    H    -0.20929   0.01409   0.49332   0.00000  Uiso   1.00
GAFF2_hc    H    -0.23142   0.03306   0.53615   0.00000  Uiso   1.00
GAFF2_os    O     0.27541  -0.01179   0.63993   0.00000  Uiso   1.00
GAFF2_c3    C     0.33693   0.15524   0.57611   0.00000  Uiso   1.00
GAFF2_hc    H     0.35533   0.18025   0.57036   0.00000  Uiso   1.00
GAFF2_hc    H     0.31364   0.16933   0.59250   0.00000  Uiso   1.00
GAFF2_hc    H     0.32543   0.14202   0.54995   0.00000  Uiso   1.00
GAFF2_c3    C    -0.28403  -0.00029   0.37430   0.00000  Uiso   1.00
GAFF2_hc    H    -0.28173  -0.01552   0.40190   0.00000  Uiso   1.00
GAFF2_hc    H    -0.28748  -0.02099   0.35073   0.00000  Uiso   1.00
GAFF2_c3    C     0.22970   0.21446   0.55311   0.00000  Uiso   1.00
GAFF2_hc    H     0.23746   0.21187   0.58358   0.00000  Uiso   1.00
GAFF2_hc    H     0.21389   0.24206   0.55426   0.00000  Uiso   1.00
GAFF2_c3    C    -0.14144  -0.00517   0.30904   0.00000  Uiso   1.00
GAFF2_c3    C    -0.12534  -0.04053   0.28374   0.00000  Uiso   1.00
GAFF2_hc    H    -0.13655   0.02329   0.29610   0.00000  Uiso   1.00
GAFF2_hc    H    -0.17278  -0.00834   0.30933   0.00000  Uiso   1.00
GAFF2_hc    H    -0.13569  -0.03651   0.25413   0.00000  Uiso   1.00
GAFF2_hc    H    -0.13742  -0.06813   0.29352   0.00000  Uiso   1.00
GAFF2_c3    C    -0.07130   0.48843   0.44789   0.00000  Uiso   1.00
GAFF2_hc    H    -0.08596   0.47635   0.42231   0.00000  Uiso   1.00
GAFF2_hc    H    -0.07819   0.47061   0.47291   0.00000  Uiso   1.00
GAFF2_c3    C     0.15783   0.38494   0.52896   0.00000  Uiso   1.00
GAFF2_hc    H     0.15380   0.38292   0.56030   0.00000  Uiso   1.00
GAFF2_hc    H     0.16156   0.35590   0.51660   0.00000  Uiso   1.00
GAFF2_hc    H     0.03708   0.16415   0.39471   0.00000  Uiso   1.00
GAFF2_oh    O     0.19117  -0.17680   0.60658   0.00000  Uiso   1.00
GAFF2_o     O     0.18312  -0.19692   0.66523   0.00000  Uiso   1.00
GAFF2_ho    H     0.16559  -0.18744   0.60457   0.00000  Uiso   1.00
GAFF2_ca    C     0.13857  -0.07302   0.53011   0.00000  Uiso   1.00
GAFF2_ha    H     0.14604  -0.17076   0.53701   0.00000  Uiso   1.00
GAFF2_c3    C    -0.00862   0.05577   0.53213   0.00000  Uiso   1.00
GAFF2_ca    C     0.07446   0.18169   0.55196   0.00000  Uiso   1.00
GAFF2_ha    H     0.11844   0.16300   0.59250   0.00000  Uiso   1.00
GAFF2_ha    H     0.08366   0.10464   0.61291   0.00000  Uiso   1.00
GAFF2_ha    H     0.01811   0.09372   0.58675   0.00000  Uiso   1.00
GAFF2_ca    C     0.40736   0.47147   0.39701   0.00000  Uiso   1.00
GAFF2_ca    C     0.39557   0.46514   0.43611   0.00000  Uiso   1.00
GAFF2_ca    C     0.38206   0.53701   0.44157   0.00000  Uiso   1.00
GAFF2_ca    C     0.38177   0.49935   0.45796   0.00000  Uiso   1.00
GAFF2_ca    C     0.36682   0.49332   0.49590   0.00000  Uiso   1.00
GAFF2_ca    C     0.36797   0.56892   0.46169   0.00000  Uiso   1.00
GAFF2_ca    C     0.39155   0.43036   0.45508   0.00000  Uiso   1.00
GAFF2_ca    C     0.37574   0.42461   0.49015   0.00000  Uiso   1.00
GAFF2_ca    C     0.35389   0.56087   0.49935   0.00000  Uiso   1.00
GAFF2_ca    C     0.35015   0.52321   0.51574   0.00000  Uiso   1.00
GAFF2_ca    C     0.36251   0.45479   0.51229   0.00000  Uiso   1.00
GAFF2_ca    C     0.34555   0.44876   0.54880   0.00000  Uiso   1.00
GAFF2_ca    C     0.33463   0.51718   0.55254   0.00000  Uiso   1.00
GAFF2_ca    C     0.33233   0.48067   0.57036   0.00000  Uiso   1.00
GAFF2_ca    C     0.41023   0.50827   0.38350   0.00000  Uiso   1.00
GAFF2_c2    C     0.36826   0.38637   0.49447   0.00000  Uiso   1.00
GAFF2_c2    C     0.39356   0.39529   0.43783   0.00000  Uiso   1.00
GAFF2_na    N     0.37890   0.36539   0.46256   0.00000  Uiso   1.00
GAFF2_hn    H     0.37027   0.33836   0.45652   0.00000  Uiso   1.00
GAFF2_ca    C     0.39874   0.54219   0.40420   0.00000  Uiso   1.00
GAFF2_ha    H     0.32715   0.54104   0.57151   0.00000  Uiso   1.00
GAFF2_ha    H     0.34296   0.58790   0.51114   0.00000  Uiso   1.00
GAFF2_ha    H     0.34153   0.41972   0.55972   0.00000  Uiso   1.00
GAFF2_ha    H     0.41311   0.44847   0.37660   0.00000  Uiso   1.00
GAFF2_h4    H     0.36136   0.37142   0.52120   0.00000  Uiso   1.00
GAFF2_h4    H     0.39126   0.38982   0.40707   0.00000  Uiso   1.00
GAFF2_ha    H     0.42001   0.51114   0.35389   0.00000  Uiso   1.00
GAFF2_c3    C     0.39902   0.58014   0.38177   0.00000  Uiso   1.00
GAFF2_c3    C     0.38839   0.61607   0.40707   0.00000  Uiso   1.00
GAFF2_c3    C     0.35964   0.60630   0.43956   0.00000  Uiso   1.00
GAFF2_c3    C     0.31307   0.47549   0.61061   0.00000  Uiso   1.00
GAFF2_c3    C     0.32428   0.50482   0.64194   0.00000  Uiso   1.00
GAFF2_c3    C     0.28978   0.51603   0.67098   0.00000  Uiso   1.00
GAFF2_hc    H     0.34526   0.49015   0.66063   0.00000  Uiso   1.00
GAFF2_hc    H     0.31537   0.44617   0.62211   0.00000  Uiso   1.00
GAFF2_hc    H     0.28173   0.47894   0.60716   0.00000  Uiso   1.00
GAFF2_hc    H     0.33204   0.59853   0.42605   0.00000  Uiso   1.00
GAFF2_hc    H     0.41397   0.62326   0.42403   0.00000  Uiso   1.00
GAFF2_hc    H     0.37631   0.63964   0.38982   0.00000  Uiso   1.00
GAFF2_hc    H     0.38005   0.57812   0.35648   0.00000  Uiso   1.00
GAFF2_hc    H     0.42863   0.58560   0.37171   0.00000  Uiso   1.00
GAFF2_ca    C     0.14834   0.73365   0.54880   0.00000  Uiso   1.00
GAFF2_ca    C     0.16818   0.74285   0.51401   0.00000  Uiso   1.00
GAFF2_ca    C     0.14489   0.75521   0.47894   0.00000  Uiso   1.00
GAFF2_ca    C     0.20756   0.73537   0.50999   0.00000  Uiso   1.00
GAFF2_ca    C     0.22941   0.72531   0.54305   0.00000  Uiso   1.00
GAFF2_ca    C     0.21044   0.72014   0.57812   0.00000  Uiso   1.00
GAFF2_ca    C     0.16961   0.72244   0.58243   0.00000  Uiso   1.00
GAFF2_ca    C     0.16358   0.76211   0.44416   0.00000  Uiso   1.00
GAFF2_ca    C     0.22567   0.74457   0.47348   0.00000  Uiso   1.00
GAFF2_ca    C     0.20411   0.75924   0.44099   0.00000  Uiso   1.00
GAFF2_ca    C     0.26333   0.76154   0.40506   0.00000  Uiso   1.00
GAFF2_ca    C     0.26621   0.73940   0.46773   0.00000  Uiso   1.00
GAFF2_ca    C     0.10522   0.75550   0.48038   0.00000  Uiso   1.00
GAFF2_ca    C     0.14230   0.77073   0.41052   0.00000  Uiso   1.00
GAFF2_ca    C     0.16185   0.78396   0.37832   0.00000  Uiso   1.00
GAFF2_ca    C     0.20267   0.78338   0.37459   0.00000  Uiso   1.00
GAFF2_ca    C     0.22280   0.76757   0.40563   0.00000  Uiso   1.00
GAFF2_h4    H     0.28029   0.76211   0.37861   0.00000  Uiso   1.00
GAFF2_ca    C     0.26994   0.71726   0.53673   0.00000  Uiso   1.00
GAFF2_ca    C     0.28719   0.71985   0.49964   0.00000  Uiso   1.00
GAFF2_ca    C     0.08596   0.74084   0.51200   0.00000  Uiso   1.00
GAFF2_nb    N     0.28432   0.74831   0.43410   0.00000  Uiso   1.00
GAFF2_ca    C     0.10752   0.73221   0.54535   0.00000  Uiso   1.00
GAFF2_ha    H     0.09343   0.71755   0.56921   0.00000  Uiso   1.00
GAFF2_c3    C     0.32514   0.69829   0.48843   0.00000  Uiso   1.00
GAFF2_c3    C     0.31652   0.66005   0.46888   0.00000  Uiso   1.00
GAFF2_hc    H     0.29725   0.66178   0.44358   0.00000  Uiso   1.00
GAFF2_hc    H     0.29898   0.64051   0.48642   0.00000  Uiso   1.00
GAFF2_hc    H     0.34268   0.71611   0.46946   0.00000  Uiso   1.00
GAFF2_hc    H     0.34469   0.69110   0.51229   0.00000  Uiso   1.00
GAFF2_os    O     0.35504   0.64223   0.46284   0.00000  Uiso   1.00
GAFF2_ca    C     0.10062   0.76470   0.41167   0.00000  Uiso   1.00
GAFF2_ca    C     0.07733   0.77476   0.38005   0.00000  Uiso   1.00
GAFF2_ca    C     0.09544   0.78856   0.34670   0.00000  Uiso   1.00
GAFF2_c3    C     0.07245   0.80034   0.31192   0.00000  Uiso   1.00
GAFF2_c3    C     0.05548   0.76527   0.29036   0.00000  Uiso   1.00
GAFF2_c3    C     0.08854   0.73969   0.27311   0.00000  Uiso   1.00
GAFF2_c     C     0.11097   0.75751   0.23918   0.00000  Uiso   1.00
GAFF2_hc    H     0.10982   0.72790   0.29294   0.00000  Uiso   1.00
GAFF2_hc    H     0.03910   0.74831   0.31163   0.00000  Uiso   1.00
GAFF2_hc    H     0.03680   0.77390   0.26649   0.00000  Uiso   1.00
GAFF2_hc    H     0.09027   0.81788   0.29237   0.00000  Uiso   1.00
GAFF2_hc    H     0.05261   0.82277   0.32227   0.00000  Uiso   1.00
GAFF2_ha    H     0.04628   0.77418   0.38522   0.00000  Uiso   1.00
GAFF2_c3    C     0.04168   0.73221   0.51286   0.00000  Uiso   1.00
GAFF2_c3    C     0.03220   0.69283   0.49475   0.00000  Uiso   1.00
GAFF2_c3    C    -0.00949   0.68075   0.49217   0.00000  Uiso   1.00
GAFF2_os    O    -0.03277   0.70950   0.47089   0.00000  Uiso   1.00
GAFF2_c3    C    -0.01955   0.72445   0.43352   0.00000  Uiso   1.00
GAFF2_c3    C    -0.04916   0.75579   0.42317   0.00000  Uiso   1.00
GAFF2_ca    C    -0.03277   0.73997   0.35073   0.00000  Uiso   1.00
GAFF2_hc    H    -0.04887   0.77936   0.44444   0.00000  Uiso   1.00
GAFF2_hc    H    -0.07704   0.74256   0.43007   0.00000  Uiso   1.00
GAFF2_hc    H     0.00949   0.73624   0.43697   0.00000  Uiso   1.00
GAFF2_hc    H    -0.01984   0.67730   0.52178   0.00000  Uiso   1.00
GAFF2_hc    H    -0.00719   0.65287   0.47779   0.00000  Uiso   1.00
GAFF2_hc    H     0.05060   0.69225   0.46917   0.00000  Uiso   1.00
GAFF2_hc    H     0.04830   0.67213   0.51258   0.00000  Uiso   1.00
GAFF2_hc    H     0.02760   0.75406   0.49475   0.00000  Uiso   1.00
GAFF2_hc    H     0.02674   0.73624   0.54018   0.00000  Uiso   1.00
GAFF2_c3    C     0.23430   0.70835   0.61348   0.00000  Uiso   1.00
GAFF2_c3    C     0.26994   0.68248   0.60572   0.00000  Uiso   1.00
GAFF2_c3    C     0.29467   0.67127   0.64022   0.00000  Uiso   1.00
GAFF2_hc    H     0.31134   0.69685   0.64913   0.00000  Uiso   1.00
GAFF2_hc    H     0.31422   0.64942   0.62814   0.00000  Uiso   1.00
GAFF2_hc    H     0.25959   0.65517   0.59365   0.00000  Uiso   1.00
GAFF2_hc    H     0.22078   0.69196   0.63677   0.00000  Uiso   1.00
GAFF2_hc    H     0.24378   0.73595   0.62556   0.00000  Uiso   1.00
GAFF2_c3    C     0.31278   0.58358   0.68277   0.00000  Uiso   1.00
GAFF2_c3    C     0.27311   0.65603   0.67385   0.00000  Uiso   1.00
GAFF2_ss    S     0.30099   0.62699   0.70749   0.00000  Uiso   1.00
GAFF2_hc    H     0.24896   0.63993   0.66149   0.00000  Uiso   1.00
GAFF2_c3    C     0.27713   0.55685   0.67242   0.00000  Uiso   1.00
GAFF2_c     C     0.25701   0.56691   0.63332   0.00000  Uiso   1.00
GAFF2_c3    C     0.21245   0.56432   0.63418   0.00000  Uiso   1.00
GAFF2_hc    H     0.20095   0.58991   0.64884   0.00000  Uiso   1.00
GAFF2_hc    H     0.20325   0.53903   0.65057   0.00000  Uiso   1.00
GAFF2_hc    H     0.25643   0.55886   0.69599   0.00000  Uiso   1.00
GAFF2_ca    C    -0.00805   0.61118   0.27656   0.00000  Uiso   1.00
GAFF2_ca    C    -0.02904   0.68018   0.29495   0.00000  Uiso   1.00
GAFF2_ca    C    -0.02731   0.64827   0.26908   0.00000  Uiso   1.00
GAFF2_ca    C    -0.04312   0.65402   0.23056   0.00000  Uiso   1.00
GAFF2_ca    C    -0.04082   0.71841   0.28317   0.00000  Uiso   1.00
GAFF2_ca    C    -0.00230   0.58531   0.24666   0.00000  Uiso   1.00
GAFF2_ca    C    -0.01869   0.59106   0.21101   0.00000  Uiso   1.00
GAFF2_ca    C    -0.05865   0.72186   0.24580   0.00000  Uiso   1.00
GAFF2_ca    C    -0.06210   0.68823   0.22308   0.00000  Uiso   1.00
GAFF2_ca    C    -0.04111   0.62383   0.20469   0.00000  Uiso   1.00
GAFF2_ca    C     0.00891   0.64022   0.33865   0.00000  Uiso   1.00
GAFF2_c2    C    -0.01725   0.55771   0.18974   0.00000  Uiso   1.00
GAFF2_c2    C     0.01064   0.54851   0.24608   0.00000  Uiso   1.00
GAFF2_na    N     0.00517   0.52954   0.21044   0.00000  Uiso   1.00
GAFF2_hn    H    -0.00489   0.50223   0.21187   0.00000  Uiso   1.00
GAFF2_ca    C    -0.01437   0.67299   0.33290   0.00000  Uiso   1.00
GAFF2_ca    C    -0.02012   0.70231   0.36194   0.00000  Uiso   1.00
GAFF2_ca    C    -0.05290   0.80638   0.36826   0.00000  Uiso   1.00
GAFF2_ca    C    -0.05060   0.81644   0.32859   0.00000  Uiso   1.00
GAFF2_ca    C    -0.04226   0.78770   0.30243   0.00000  Uiso   1.00
GAFF2_ca    C     0.01380   0.60975   0.31077   0.00000  Uiso   1.00
GAFF2_ha    H    -0.07704   0.69024   0.19577   0.00000  Uiso   1.00
GAFF2_ha    H    -0.05491   0.62757   0.17680   0.00000  Uiso   1.00
GAFF2_h4    H     0.03450   0.53471   0.26132   0.00000  Uiso   1.00
GAFF2_ha    H    -0.06095   0.82823   0.38925   0.00000  Uiso   1.00
GAFF2_ha    H     0.02242   0.63677   0.36654   0.00000  Uiso   1.00
GAFF2_c3    C    -0.03450   0.54736   0.15179   0.00000  Uiso   1.00
GAFF2_c3    C    -0.07848   0.54046   0.15265   0.00000  Uiso   1.00
GAFF2_c3    C    -0.09056   0.50740   0.17996   0.00000  Uiso   1.00
GAFF2_c     C    -0.06698   0.47089   0.17364   0.00000  Uiso   1.00
GAFF2_o     O    -0.03594   0.46457   0.19031   0.00000  Uiso   1.00
GAFF2_c3    C    -0.08538   0.43956   0.14719   0.00000  Uiso   1.00
GAFF2_c3    C    -0.05836   0.40880   0.13282   0.00000  Uiso   1.00
GAFF2_c3    C    -0.07676   0.37775   0.10579   0.00000  Uiso   1.00
GAFF2_hc    H    -0.05462   0.37401   0.08366   0.00000  Uiso   1.00
GAFF2_hc    H    -0.04600   0.39356   0.15783   0.00000  Uiso   1.00
GAFF2_hc    H    -0.03421   0.42346   0.11873   0.00000  Uiso   1.00
GAFF2_hc    H    -0.10436   0.42375   0.16674   0.00000  Uiso   1.00
GAFF2_hc    H    -0.08366   0.51430   0.21015   0.00000  Uiso   1.00
GAFF2_hc    H    -0.08452   0.53213   0.12304   0.00000  Uiso   1.00
GAFF2_hc    H    -0.02070   0.52178   0.13914   0.00000  Uiso   1.00
GAFF2_hc    H    -0.02760   0.57007   0.13080   0.00000  Uiso   1.00
GAFF2_ca    C    -0.13569   0.36481   0.06353   0.00000  Uiso   1.00
GAFF2_ca    C    -0.15984   0.37717   0.03364   0.00000  Uiso   1.00
GAFF2_ca    C    -0.16300   0.41685   0.02559   0.00000  Uiso   1.00
GAFF2_ca    C    -0.11154   0.39184   0.08394   0.00000  Uiso   1.00
GAFF2_ca    C    -0.19980   0.40046  -0.03364   0.00000  Uiso   1.00
GAFF2_ca    C    -0.12189   0.43122   0.08107   0.00000  Uiso   1.00
GAFF2_ca    C    -0.18226   0.42978  -0.00949   0.00000  Uiso   1.00
GAFF2_ca    C    -0.15121   0.30013   0.04743   0.00000  Uiso   1.00
GAFF2_ca    C    -0.13195   0.32687   0.07187   0.00000  Uiso   1.00
GAFF2_ca    C    -0.11039   0.31249   0.10378   0.00000  Uiso   1.00
GAFF2_ca    C    -0.14834   0.25988   0.05117   0.00000  Uiso   1.00
GAFF2_ca    C    -0.12994   0.24637   0.08394   0.00000  Uiso   1.00
GAFF2_ca    C    -0.11010   0.27224   0.11010   0.00000  Uiso   1.00
GAFF2_ca    C    -0.17048   0.31335   0.01236   0.00000  Uiso   1.00
GAFF2_ha    H    -0.12822   0.21504   0.08509   0.00000  Uiso   1.00
GAFF2_ca    C    -0.18226   0.46946  -0.01811   0.00000  Uiso   1.00
GAFF2_ca    C    -0.16271   0.49590   0.00402   0.00000  Uiso   1.00
GAFF2_nb    N    -0.19664   0.36280  -0.02674   0.00000  Uiso   1.00
GAFF2_ca    C    -0.14575   0.44387   0.05002   0.00000  Uiso   1.00
GAFF2_ca    C    -0.14345   0.48412   0.03651   0.00000  Uiso   1.00
GAFF2_ca    C    -0.17795   0.35188   0.00690   0.00000  Uiso   1.00
GAFF2_c3    C    -0.19951   0.48757  -0.05405   0.00000  Uiso   1.00
GAFF2_c3    C    -0.18284   0.52925  -0.05232   0.00000  Uiso   1.00
GAFF2_c3    C    -0.15179   0.53558  -0.08308   0.00000  Uiso   1.00
GAFF2_hc    H    -0.12793   0.51488  -0.08711   0.00000  Uiso   1.00
GAFF2_hc    H    -0.16703   0.53443  -0.11097   0.00000  Uiso   1.00
GAFF2_hc    H    -0.20842   0.54679  -0.05836   0.00000  Uiso   1.00
GAFF2_hc    H    -0.19462   0.47319  -0.08193   0.00000  Uiso   1.00
GAFF2_hc    H    -0.23056   0.48929  -0.04830   0.00000  Uiso   1.00
GAFF2_h4    H    -0.21389   0.40966  -0.05980   0.00000  Uiso   1.00
GAFF2_ha    H    -0.18111   0.29265  -0.00834   0.00000  Uiso   1.00
GAFF2_ha    H    -0.16243   0.24062   0.03105   0.00000  Uiso   1.00
GAFF2_ha    H    -0.12477   0.50453   0.05117   0.00000  Uiso   1.00
GAFF2_c3    C    -0.09228   0.25183   0.14432   0.00000  Uiso   1.00
GAFF2_c3    C    -0.12017   0.25155   0.17968   0.00000  Uiso   1.00
GAFF2_c3    C    -0.10234   0.23315   0.21245   0.00000  Uiso   1.00
GAFF2_hc    H    -0.12132   0.23803   0.23746   0.00000  Uiso   1.00
GAFF2_hc    H    -0.09774   0.20181   0.21044   0.00000  Uiso   1.00
GAFF2_hc    H    -0.12678   0.28173   0.18657   0.00000  Uiso   1.00
GAFF2_hc    H    -0.14661   0.23660   0.17134   0.00000  Uiso   1.00
GAFF2_hc    H    -0.09113   0.22078   0.13799   0.00000  Uiso   1.00
GAFF2_os    O    -0.13569   0.57381  -0.08193   0.00000  Uiso   1.00
GAFF2_c3    C    -0.09717   0.58014  -0.09631   0.00000  Uiso   1.00
GAFF2_c3    C    -0.07503   0.60860  -0.06928   0.00000  Uiso   1.00
GAFF2_c3    C    -0.06181   0.59365  -0.02789   0.00000  Uiso   1.00
GAFF2_c3    C    -0.04485   0.55081  -0.02731   0.00000  Uiso   1.00
GAFF2_hc    H    -0.02932   0.54190  -0.05318   0.00000  Uiso   1.00
GAFF2_hc    H    -0.06871   0.53069  -0.02386   0.00000  Uiso   1.00
GAFF2_hc    H    -0.08624   0.59278  -0.00776   0.00000  Uiso   1.00
GAFF2_hc    H    -0.05203   0.62239  -0.08624   0.00000  Uiso   1.00
GAFF2_hc    H    -0.09199   0.63504  -0.06526   0.00000  Uiso   1.00
GAFF2_hc    H    -0.08021   0.55369  -0.09832   0.00000  Uiso   1.00
GAFF2_hc    H    -0.09573   0.59480  -0.12419   0.00000  Uiso   1.00
GAFF2_ca    C     0.05088   0.60917   0.12362   0.00000  Uiso   1.00
GAFF2_ca    C     0.04628   0.57122   0.10867   0.00000  Uiso   1.00
GAFF2_ca    C     0.03536   0.63936   0.10292   0.00000  Uiso   1.00
GAFF2_ca    C     0.13828   0.62699   0.21302   0.00000  Uiso   1.00
GAFF2_ca    C     0.15668   0.63533   0.24781   0.00000  Uiso   1.00
GAFF2_ca    C     0.16559   0.60572   0.27224   0.00000  Uiso   1.00
GAFF2_ca    C     0.02300   0.56461   0.07618   0.00000  Uiso   1.00
GAFF2_ca    C     0.01495   0.63361   0.06842   0.00000  Uiso   1.00
GAFF2_ca    C     0.00719   0.59595   0.05548   0.00000  Uiso   1.00
GAFF2_ca    C     0.06152   0.53960   0.12994   0.00000  Uiso   1.00
GAFF2_ca    C     0.01869   0.52523   0.06267   0.00000  Uiso   1.00
GAFF2_ca    C    -0.00575   0.52034   0.03191   0.00000  Uiso   1.00
GAFF2_ca    C    -0.01869   0.55196   0.00920   0.00000  Uiso   1.00
GAFF2_ca    C    -0.01380   0.58962   0.02156   0.00000  Uiso   1.00
GAFF2_hc    H     0.04916   0.64252   0.21044   0.00000  Uiso   1.00
GAFF2_ca    C     0.08279   0.54707   0.16501   0.00000  Uiso   1.00
GAFF2_ca    C     0.09113   0.58445   0.17709   0.00000  Uiso   1.00
GAFF2_ca    C     0.03450   0.49418   0.08308   0.00000  Uiso   1.00
GAFF2_ca    C     0.05462   0.50079   0.11787   0.00000  Uiso   1.00
GAFF2_ca    C     0.09717   0.51430   0.18801   0.00000  Uiso   1.00
GAFF2_ca    C     0.08624   0.47635   0.17680   0.00000  Uiso   1.00
GAFF2_ca    C     0.06296   0.47089   0.14202   0.00000  Uiso   1.00
GAFF2_ca    C     0.11873   0.59077   0.20727   0.00000  Uiso   1.00
GAFF2_ca    C     0.12908   0.56145   0.23343   0.00000  Uiso   1.00
GAFF2_ca    C     0.11643   0.52379   0.22452   0.00000  Uiso   1.00
GAFF2_c3    C     0.10033   0.44186   0.20124   0.00000  Uiso   1.00
GAFF2_hc    H     0.13023   0.43783   0.19204   0.00000  Uiso   1.00
GAFF2_hc    H     0.08653   0.41426   0.19462   0.00000  Uiso   1.00
GAFF2_ca    C     0.07273   0.61607   0.15869   0.00000  Uiso   1.00
GAFF2_ha    H     0.05865   0.44013   0.13713   0.00000  Uiso   1.00
GAFF2_ha    H     0.00201   0.65603   0.05060   0.00000  Uiso   1.00
GAFF2_ha    H    -0.01121   0.49389   0.01639   0.00000  Uiso   1.00
GAFF2_c3    C     0.02386   0.45249   0.07388   0.00000  Uiso   1.00
GAFF2_c3    C     0.05635   0.43611   0.04945   0.00000  Uiso   1.00
GAFF2_hc    H     0.07187   0.45537   0.02961   0.00000  Uiso   1.00
GAFF2_hc    H    -0.00201   0.45393   0.05606   0.00000  Uiso   1.00
GAFF2_c3    C     0.10091   0.45364   0.24378   0.00000  Uiso   1.00
GAFF2_os    O     0.11585   0.42116   0.26506   0.00000  Uiso   1.00
GAFF2_c3    C     0.10551   0.41512   0.30530   0.00000  Uiso   1.00
GAFF2_c3    C     0.06267   0.40880   0.31422   0.00000  Uiso   1.00
GAFF2_c3    C     0.05433   0.38839   0.35475   0.00000  Uiso   1.00
GAFF2_hc    H     0.02329   0.38867   0.36108   0.00000  Uiso   1.00
GAFF2_hc    H     0.06670   0.40995   0.37430   0.00000  Uiso   1.00
GAFF2_hc    H     0.05146   0.43841   0.31393   0.00000  Uiso   1.00
GAFF2_hc    H     0.04715   0.39155   0.29265   0.00000  Uiso   1.00
GAFF2_hc    H     0.11787   0.43812   0.32313   0.00000  Uiso   1.00
GAFF2_hc    H     0.12189   0.39040   0.31623   0.00000  Uiso   1.00
GAFF2_ca    C     0.24551   0.64798   0.29438   0.00000  Uiso   1.00
GAFF2_ca    C     0.25586   0.62009   0.32284   0.00000  Uiso   1.00
GAFF2_ca    C     0.24781   0.60572   0.39270   0.00000  Uiso   1.00
GAFF2_ca    C     0.23142   0.62038   0.42576   0.00000  Uiso   1.00
GAFF2_ca    C     0.24407   0.63016   0.36108   0.00000  Uiso   1.00
GAFF2_ca    C     0.22481   0.66408   0.36970   0.00000  Uiso   1.00
GAFF2_ss    S     0.20814   0.66465   0.41828   0.00000  Uiso   1.00
GAFF2_ca    C     0.26649   0.56950   0.38839   0.00000  Uiso   1.00
GAFF2_ca    C     0.26736   0.54621   0.42288   0.00000  Uiso   1.00
GAFF2_c3    C     0.29064   0.50712   0.42375   0.00000  Uiso   1.00
GAFF2_hc    H     0.30300   0.49734   0.45106   0.00000  Uiso   1.00
GAFF2_hc    H     0.31652   0.51660   0.40793   0.00000  Uiso   1.00
GAFF2_c3    C     0.27052   0.47549   0.40391   0.00000  Uiso   1.00
GAFF2_c3    C     0.23257   0.39989   0.39902   0.00000  Uiso   1.00
GAFF2_c3    C     0.20756   0.36596   0.38264   0.00000  Uiso   1.00
GAFF2_c3    C     0.20411   0.16703   0.36567   0.00000  Uiso   1.00
GAFF2_c3    C     0.16415   0.16128   0.38350   0.00000  Uiso   1.00
GAFF2_ca    C     0.02012   0.24666   0.31335   0.00000  Uiso   1.00
GAFF2_ca    C     0.00057   0.28144   0.31479   0.00000  Uiso   1.00
GAFF2_ca    C     0.05721   0.31709   0.34210   0.00000  Uiso   1.00
GAFF2_ca    C     0.01926   0.31709   0.32658   0.00000  Uiso   1.00
GAFF2_ca    C     0.07474   0.35188   0.35619   0.00000  Uiso   1.00
GAFF2_ca    C     0.00604   0.20986   0.30013   0.00000  Uiso   1.00
GAFF2_ca    C     0.03220   0.18054   0.29524   0.00000  Uiso   1.00
GAFF2_ca    C     0.06842   0.18083   0.31048   0.00000  Uiso   1.00
GAFF2_ca    C     0.08366   0.14546   0.31422   0.00000  Uiso   1.00
GAFF2_c2    C     0.02587   0.14432   0.28231   0.00000  Uiso   1.00
GAFF2_na    N     0.05721   0.12160   0.29524   0.00000  Uiso   1.00
GAFF2_c3    C    -0.01294   0.12534   0.27397   0.00000  Uiso   1.00
GAFF2_c3    C    -0.04398   0.15064   0.29610   0.00000  Uiso   1.00
GAFF2_c3    C    -0.08423   0.14115   0.28116   0.00000  Uiso   1.00
GAFF2_c3    C    -0.09774   0.09774   0.28978   0.00000  Uiso   1.00
GAFF2_hc    H    -0.12908   0.09487   0.29179   0.00000  Uiso   1.00
GAFF2_hc    H    -0.08596   0.09199   0.31853   0.00000  Uiso   1.00
GAFF2_hc    H    -0.09084   0.14633   0.25068   0.00000  Uiso   1.00
GAFF2_hc    H    -0.01524   0.09458   0.28058   0.00000  Uiso   1.00
GAFF2_hc    H    -0.01754   0.12678   0.24292   0.00000  Uiso   1.00
GAFF2_hn    H     0.06181   0.09314   0.29237   0.00000  Uiso   1.00
GAFF2_ha    H     0.00661   0.34526   0.32313   0.00000  Uiso   1.00
GAFF2_ca    C     0.13310   0.17278   0.35245   0.00000  Uiso   1.00
GAFF2_hc    H    -0.10436   0.15811   0.29869   0.00000  Uiso   1.00
GAFF2_hc    H    -0.04370   0.14259   0.32658   0.00000  Uiso   1.00
GAFF2_hc    H     0.16128   0.18284   0.40621   0.00000  Uiso   1.00
GAFF2_hc    H     0.16271   0.13167   0.39442   0.00000  Uiso   1.00
GAFF2_hc    H     0.22711   0.15438   0.38321   0.00000  Uiso   1.00
GAFF2_hc    H     0.21245   0.19750   0.36338   0.00000  Uiso   1.00
GAFF2_hc    H     0.22567   0.34038   0.37890   0.00000  Uiso   1.00
GAFF2_hc    H    -0.07417   0.24580   0.21906   0.00000  Uiso   1.00
GAFF2_ca    C     0.23027   0.59853   0.45997   0.00000  Uiso   1.00
GAFF2_ca    C     0.24723   0.56174   0.45853   0.00000  Uiso   1.00
GAFF2_ca    C    -0.03967   0.74831   0.31105   0.00000  Uiso   1.00
GAFF2_ca    C     0.21676   0.69340   0.34181   0.00000  Uiso   1.00
GAFF2_ca    C     0.22941   0.68449   0.30473   0.00000  Uiso   1.00
GAFF2_ha    H     0.22222   0.70433   0.28173   0.00000  Uiso   1.00
GAFF2_ha    H     0.19664   0.71611   0.34929   0.00000  Uiso   1.00
GAFF2_ha    H    -0.04312   0.80121   0.27426   0.00000  Uiso   1.00
GAFF2_ca    C     0.08136   0.21302   0.33060   0.00000  Uiso   1.00
GAFF2_ca    C     0.05836   0.24666   0.32888   0.00000  Uiso   1.00
GAFF2_ca    C     0.07618   0.28001   0.34526   0.00000  Uiso   1.00
GAFF2_ca    C     0.11327   0.27828   0.36280   0.00000  Uiso   1.00
GAFF2_ca    C     0.10896   0.34613   0.37689   0.00000  Uiso   1.00
GAFF2_ca    C     0.12764   0.31192   0.37947   0.00000  Uiso   1.00
GAFF2_ca    C     0.13195   0.24235   0.36452   0.00000  Uiso   1.00
GAFF2_ca    C     0.11643   0.20957   0.34843   0.00000  Uiso   1.00
GAFF2_ha    H     0.15840   0.24033   0.38149   0.00000  Uiso   1.00
GAFF2_c3    C    -0.03996   0.28518   0.29668   0.00000  Uiso   1.00
GAFF2_c3    C    -0.05548   0.32485   0.28892   0.00000  Uiso   1.00
GAFF2_c3    C    -0.09487   0.32830   0.26736   0.00000  Uiso   1.00
GAFF2_hc    H    -0.10321   0.35791   0.26017   0.00000  Uiso   1.00
GAFF2_hc    H    -0.09142   0.31508   0.23890   0.00000  Uiso   1.00
GAFF2_hc    H    -0.11758   0.31537   0.28518   0.00000  Uiso   1.00
GAFF2_hc    H    -0.05721   0.33951   0.31709   0.00000  Uiso   1.00
GAFF2_hc    H    -0.06095   0.27052   0.31537   0.00000  Uiso   1.00
GAFF2_hc    H     0.33204   0.56777   0.70231   0.00000  Uiso   1.00
GAFF2_ha    H     0.25327   0.64453   0.26419   0.00000  Uiso   1.00
GAFF2_hc    H     0.08481   0.67155   0.18945   0.00000  Uiso   1.00
GAFF2_os    O     0.17163   0.53989   0.28863   0.00000  Uiso   1.00
GAFF2_c3    C     0.20210   0.54707   0.31709   0.00000  Uiso   1.00
GAFF2_c3    C     0.23918   0.55742   0.29352   0.00000  Uiso   1.00
GAFF2_c3    C     0.27052   0.58071   0.31335   0.00000  Uiso   1.00
GAFF2_hc    H     0.29352   0.58330   0.29179   0.00000  Uiso   1.00
GAFF2_hc    H     0.22998   0.57065   0.26621   0.00000  Uiso   1.00
GAFF2_hc    H     0.25097   0.53040   0.28173   0.00000  Uiso   1.00
GAFF2_hc    H     0.19146   0.56749   0.33865   0.00000  Uiso   1.00
GAFF2_hc    H     0.20871   0.52063   0.33319   0.00000  Uiso   1.00
GAFF2_hc    H     0.33175   0.59020   0.65833   0.00000  Uiso   1.00
GAFF2_hc    H     0.26074   0.67903   0.69168   0.00000  Uiso   1.00
GAFF2_ca    C     0.13569   0.79316   0.34584   0.00000  Uiso   1.00
GAFF2_ha    H     0.14776   0.79977   0.31767   0.00000  Uiso   1.00
GAFF2_hc    H     0.07417   0.71410   0.26103   0.00000  Uiso   1.00
GAFF2_hc    H     0.34009   0.53040   0.63159   0.00000  Uiso   1.00
GAFF2_hc    H     0.19664   0.37372   0.35389   0.00000  Uiso   1.00
GAFF2_hc    H     0.07733   0.42260   0.06842   0.00000  Uiso   1.00
GAFF2_hc    H     0.01897   0.43208   0.09774   0.00000  Uiso   1.00
GAFF2_hc    H     0.07015   0.45738   0.25068   0.00000  Uiso   1.00
GAFF2_hc    H    -0.09343   0.56806   0.15639   0.00000  Uiso   1.00
GAFF2_hc    H    -0.03680   0.34124   0.26966   0.00000  Uiso   1.00
GAFF2_hc    H    -0.03938   0.27196   0.26793   0.00000  Uiso   1.00
GAFF2_c3    C     0.21302   0.61607   0.49705   0.00000  Uiso   1.00
GAFF2_c3    C     0.22136   0.59250   0.53299   0.00000  Uiso   1.00
GAFF2_c3    C     0.21504   0.55024   0.52436   0.00000  Uiso   1.00
GAFF2_c3    C     0.24522   0.53816   0.49677   0.00000  Uiso   1.00
GAFF2_hc    H     0.22538   0.64539   0.49878   0.00000  Uiso   1.00
GAFF2_hc    H     0.18255   0.62268   0.49217   0.00000  Uiso   1.00
GAFF2_hc    H     0.25155   0.59853   0.53989   0.00000  Uiso   1.00
GAFF2_hc    H     0.18657   0.54679   0.51114   0.00000  Uiso   1.00
GAFF2_hc    H     0.27339   0.54190   0.51056   0.00000  Uiso   1.00
GAFF2_hc    H     0.23717   0.50798   0.49274   0.00000  Uiso   1.00
GAFF2_c3    C     0.29553   0.44128   0.39557   0.00000  Uiso   1.00
GAFF2_c3    C     0.21072   0.43697   0.40707   0.00000  Uiso   1.00
GAFF2_c3    C     0.27224   0.40851   0.37430   0.00000  Uiso   1.00
GAFF2_hc    H     0.24206   0.39212   0.42806   0.00000  Uiso   1.00
GAFF2_hc    H     0.30617   0.43122   0.42346   0.00000  Uiso   1.00
GAFF2_hc    H     0.31939   0.45393   0.37890   0.00000  Uiso   1.00
GAFF2_hc    H     0.18542   0.43093   0.42518   0.00000  Uiso   1.00
GAFF2_hc    H     0.19980   0.45048   0.38062   0.00000  Uiso   1.00
GAFF2_hc    H     0.28978   0.38235   0.37631   0.00000  Uiso   1.00
GAFF2_hc    H     0.26707   0.41282   0.34354   0.00000  Uiso   1.00
GAFF2_hc    H     0.25931   0.48670   0.37660   0.00000  Uiso   1.00
GAFF2_c3    C     0.19549   0.60112   0.57065   0.00000  Uiso   1.00
GAFF2_c3    C     0.21159   0.53155   0.56490   0.00000  Uiso   1.00
GAFF2_c3    C     0.19347   0.56231   0.59307   0.00000  Uiso   1.00
GAFF2_hc    H     0.20727   0.62556   0.58675   0.00000  Uiso   1.00
GAFF2_hc    H     0.16674   0.61032   0.56087   0.00000  Uiso   1.00
GAFF2_hc    H     0.24177   0.52580   0.57266   0.00000  Uiso   1.00
GAFF2_hc    H     0.19376   0.50539   0.56662   0.00000  Uiso   1.00
GAFF2_hc    H     0.16214   0.55685   0.59451   0.00000  Uiso   1.00
GAFF2_o     O     0.27656   0.57870   0.60658   0.00000  Uiso   1.00
GAFF2_hc    H     0.30502   0.50798   0.69771   0.00000  Uiso   1.00
GAFF2_hc    H     0.26391   0.49907   0.66494   0.00000  Uiso   1.00
GAFF2_ca    C     0.11787   0.14000   0.33405   0.00000  Uiso   1.00
GAFF2_ha    H     0.13080   0.11125   0.33578   0.00000  Uiso   1.00
GAFF2_os    O     0.16156   0.31335   0.39960   0.00000  Uiso   1.00
GAFF2_c3    C    -0.07417   0.75866   0.22538   0.00000  Uiso   1.00
GAFF2_hc    H    -0.09084   0.77648   0.24551   0.00000  Uiso   1.00
GAFF2_hc    H    -0.09401   0.75004   0.20239   0.00000  Uiso   1.00
GAFF2_c3    C     0.03996   0.57812   0.31910   0.00000  Uiso   1.00
GAFF2_hc    H     0.06612   0.57554   0.30157   0.00000  Uiso   1.00
GAFF2_hc    H     0.02674   0.54937   0.32169   0.00000  Uiso   1.00
GAFF2_hc    H     0.05433   0.58243   0.34670   0.00000  Uiso   1.00
GAFF2_c3    C     0.17191   0.35389   0.40678   0.00000  Uiso   1.00
GAFF2_hc    H     0.17651   0.35676   0.43812   0.00000  Uiso   1.00
GAFF2_os    O     0.23746   0.46486   0.42605   0.00000  Uiso   1.00
GAFF2_hc    H    -0.08481   0.07906   0.26793   0.00000  Uiso   1.00
GAFF2_c3    C     0.03019   0.68047   0.16156   0.00000  Uiso   1.00
GAFF2_c3    C     0.02645   0.72301   0.17393   0.00000  Uiso   1.00
GAFF2_c3    C     0.04111   0.68162   0.11844   0.00000  Uiso   1.00
GAFF2_c3    C     0.01265   0.71611   0.10407   0.00000  Uiso   1.00
GAFF2_c3    C     0.00805   0.74400   0.13742   0.00000  Uiso   1.00
GAFF2_hc    H     0.00172   0.66782   0.16703   0.00000  Uiso   1.00
GAFF2_hc    H     0.00805   0.72761   0.19922   0.00000  Uiso   1.00
GAFF2_hc    H     0.05376   0.73480   0.18456   0.00000  Uiso   1.00
GAFF2_hc    H     0.07130   0.69110   0.11700   0.00000  Uiso   1.00
GAFF2_hc    H    -0.01667   0.70749   0.09602   0.00000  Uiso   1.00
GAFF2_hc    H     0.02559   0.73394   0.08136   0.00000  Uiso   1.00
GAFF2_hc    H     0.02674   0.76901   0.13339   0.00000  Uiso   1.00
GAFF2_c3    C     0.22280   0.79460   0.33549   0.00000  Uiso   1.00
GAFF2_hc    H     0.21159   0.82334   0.32888   0.00000  Uiso   1.00
GAFF2_hc    H     0.21417   0.77390   0.31335   0.00000  Uiso   1.00
GAFF2_hc    H     0.25413   0.79833   0.33808   0.00000  Uiso   1.00
GAFF2_os    O    -0.03996   0.77763   0.21159   0.00000  Uiso   1.00
GAFF2_c3    C    -0.04082   0.79057   0.17163   0.00000  Uiso   1.00
GAFF2_c3    C    -0.03565   0.75521   0.14460   0.00000  Uiso   1.00
GAFF2_hc    H    -0.06612   0.80696   0.16271   0.00000  Uiso   1.00
GAFF2_hc    H    -0.01639   0.81041   0.16731   0.00000  Uiso   1.00
GAFF2_hc    H    -0.05232   0.73192   0.15754   0.00000  Uiso   1.00
GAFF2_hc    H    -0.04686   0.76470   0.11643   0.00000  Uiso   1.00
GAFF2_hc    H     0.04427   0.41253   0.03191   0.00000  Uiso   1.00
GAFF2_c3    C     0.12534   0.48958   0.25241   0.00000  Uiso   1.00
GAFF2_hc    H     0.12103   0.50050   0.28173   0.00000  Uiso   1.00
GAFF2_hc    H     0.15581   0.48182   0.24838   0.00000  Uiso   1.00
GAFF2_c3    C    -0.08538   0.34038   0.12735   0.00000  Uiso   1.00
GAFF2_hc    H    -0.09659   0.34584   0.15639   0.00000  Uiso   1.00
GAFF2_hc    H    -0.05663   0.32830   0.13310   0.00000  Uiso   1.00
GAFF2_c3    C    -0.10694   0.45796   0.11212   0.00000  Uiso   1.00
GAFF2_hc    H    -0.08481   0.47607   0.09889   0.00000  Uiso   1.00
GAFF2_c3    C    -0.01869   0.69225   0.40535   0.00000  Uiso   1.00
GAFF2_hc    H    -0.04140   0.67242   0.41483   0.00000  Uiso   1.00
GAFF2_hc    H     0.00690   0.67472   0.41167   0.00000  Uiso   1.00
GAFF2_hc    H     0.20871   0.15639   0.33635   0.00000  Uiso   1.00
GAFF2_c3    C     0.29323   0.69886   0.57122   0.00000  Uiso   1.00
GAFF2_hc    H     0.31163   0.67472   0.56289   0.00000  Uiso   1.00
GAFF2_hc    H     0.31450   0.72071   0.57927   0.00000  Uiso   1.00
GAFF2_c3    C    -0.03277   0.61751  -0.00575   0.00000  Uiso   1.00
GAFF2_hc    H    -0.04772   0.64281   0.00604   0.00000  Uiso   1.00
GAFF2_hc    H    -0.01207   0.62929  -0.02674   0.00000  Uiso   1.00
GAFF2_os    O     0.08279   0.76297   0.44732   0.00000  Uiso   1.00
GAFF2_c3    C     0.14748   0.71669   0.61952   0.00000  Uiso   1.00
GAFF2_hc    H     0.13080   0.68995   0.61607   0.00000  Uiso   1.00
GAFF2_hc    H     0.12620   0.73854   0.62699   0.00000  Uiso   1.00
GAFF2_hc    H     0.16501   0.71525   0.64597   0.00000  Uiso   1.00
GAFF2_c3    C    -0.16501   0.53701  -0.01179   0.00000  Uiso   1.00
GAFF2_hc    H    -0.13713   0.55167  -0.01466   0.00000  Uiso   1.00
GAFF2_hc    H    -0.18284   0.55570   0.00632   0.00000  Uiso   1.00
GAFF2_c3    C     0.28921   0.56231   0.35159   0.00000  Uiso   1.00
GAFF2_hc    H     0.31853   0.57209   0.35763   0.00000  Uiso   1.00
GAFF2_hc    H     0.29323   0.53155   0.34584   0.00000  Uiso   1.00
GAFF2_c3    C    -0.14288   0.48210   0.13138   0.00000  Uiso   1.00
GAFF2_c3    C    -0.13310   0.49820   0.17278   0.00000  Uiso   1.00
GAFF2_hc    H    -0.16933   0.46457   0.13425   0.00000  Uiso   1.00
GAFF2_hc    H    -0.15323   0.50654   0.11413   0.00000  Uiso   1.00
GAFF2_hc    H    -0.14173   0.47492   0.19232   0.00000  Uiso   1.00
GAFF2_hc    H    -0.15064   0.52293   0.18140   0.00000  Uiso   1.00
GAFF2_c3    C    -0.03680   0.19635   0.29409   0.00000  Uiso   1.00
GAFF2_hc    H    -0.05548   0.20842   0.31652   0.00000  Uiso   1.00
GAFF2_hc    H    -0.04600   0.20871   0.26649   0.00000  Uiso   1.00
GAFF2_c3    C     0.13339   0.37516   0.39701   0.00000  Uiso   1.00
GAFF2_hc    H     0.13655   0.40046   0.37861   0.00000  Uiso   1.00
GAFF2_hc    H     0.11873   0.38350   0.42375   0.00000  Uiso   1.00
GAFF2_hc    H    -0.06296   0.26161   0.15093   0.00000  Uiso   1.00
GAFF2_oh    O     0.13972   0.73365   0.22912   0.00000  Uiso   1.00
GAFF2_o     O     0.10349   0.78482   0.21906   0.00000  Uiso   1.00
GAFF2_ho    H     0.14518   0.74601   0.20497   0.00000  Uiso   1.00
GAFF2_ca    C    -0.04283   0.76843   0.38034   0.00000  Uiso   1.00
GAFF2_ha    H    -0.05433   0.84692   0.32255   0.00000  Uiso   1.00
GAFF2_c3    C     0.05951   0.65373   0.18284   0.00000  Uiso   1.00
GAFF2_ca    C     0.15524   0.56864   0.26362   0.00000  Uiso   1.00
GAFF2_ha    H     0.17508   0.61377   0.30099   0.00000  Uiso   1.00
GAFF2_ha    H     0.16559   0.66523   0.25155   0.00000  Uiso   1.00
GAFF2_ha    H     0.13914   0.65114   0.19290   0.00000  Uiso   1.00
GAFF2_ca    C     0.69082   0.65977   0.65660   0.00000  Uiso   1.00
GAFF2_ca    C     0.69283   0.69743   0.64453   0.00000  Uiso   1.00
GAFF2_ca    C     0.74831   0.70806   0.68852   0.00000  Uiso   1.00
GAFF2_ca    C     0.72071   0.72301   0.66092   0.00000  Uiso   1.00
GAFF2_ca    C     0.72215   0.76326   0.65201   0.00000  Uiso   1.00
GAFF2_ca    C     0.77188   0.73307   0.70921   0.00000  Uiso   1.00
GAFF2_ca    C     0.66695   0.71439   0.61837   0.00000  Uiso   1.00
GAFF2_ca    C     0.66523   0.75377   0.61003   0.00000  Uiso   1.00
GAFF2_ca    C     0.77160   0.77476   0.70088   0.00000  Uiso   1.00
GAFF2_ca    C     0.74544   0.78885   0.67472   0.00000  Uiso   1.00
GAFF2_ca    C     0.69599   0.77735   0.62469   0.00000  Uiso   1.00
GAFF2_ca    C     0.69743   0.81616   0.61837   0.00000  Uiso   1.00
GAFF2_ca    C     0.74486   0.82737   0.66839   0.00000  Uiso   1.00
GAFF2_ca    C     0.72273   0.84318   0.63849   0.00000  Uiso   1.00
GAFF2_ca    C     0.71956   0.64654   0.68219   0.00000  Uiso   1.00
GAFF2_c2    C     0.63389   0.76240   0.58675   0.00000  Uiso   1.00
GAFF2_c2    C     0.62987   0.70231   0.60716   0.00000  Uiso   1.00
GAFF2_na    N     0.60860   0.73192   0.58905   0.00000  Uiso   1.00
GAFF2_hn    H     0.58014   0.73595   0.59221   0.00000  Uiso   1.00
GAFF2_ca    C     0.74946   0.66810   0.69858   0.00000  Uiso   1.00
GAFF2_ha    H     0.76728   0.84692   0.67845   0.00000  Uiso   1.00
GAFF2_ha    H     0.78942   0.79345   0.71870   0.00000  Uiso   1.00
GAFF2_ha    H     0.67788   0.82794   0.59681   0.00000  Uiso   1.00
GAFF2_ha    H     0.67127   0.63821   0.64511   0.00000  Uiso   1.00
GAFF2_h4    H     0.62038   0.79057   0.58761   0.00000  Uiso   1.00
GAFF2_h4    H     0.61061   0.68219   0.62124   0.00000  Uiso   1.00
GAFF2_ha    H     0.71640   0.61550   0.68708   0.00000  Uiso   1.00
GAFF2_c3    C     0.78051   0.64769   0.72244   0.00000  Uiso   1.00
GAFF2_c3    C     0.81501   0.67788   0.73336   0.00000  Uiso   1.00
GAFF2_c3    C     0.79661   0.71956   0.74342   0.00000  Uiso   1.00
GAFF2_c3    C     0.71870   0.88544   0.63389   0.00000  Uiso   1.00
GAFF2_c3    C     0.68334   0.90039   0.65833   0.00000  Uiso   1.00
GAFF2_c3    C     0.68852   0.89579   0.70260   0.00000  Uiso   1.00
GAFF2_hc    H     0.67702   0.93057   0.65057   0.00000  Uiso   1.00
GAFF2_hc    H     0.71640   0.89464   0.60371   0.00000  Uiso   1.00
GAFF2_hc    H     0.74371   0.89924   0.64741   0.00000  Uiso   1.00
GAFF2_hc    H     0.82133   0.73796   0.74975   0.00000  Uiso   1.00
GAFF2_hc    H     0.83398   0.66667   0.75607   0.00000  Uiso   1.00
GAFF2_hc    H     0.83571   0.67989   0.70950   0.00000  Uiso   1.00
GAFF2_hc    H     0.79345   0.62067   0.71209   0.00000  Uiso   1.00
GAFF2_hc    H     0.76930   0.63734   0.75004   0.00000  Uiso   1.00
GAFF2_ca    C     0.59940   0.81328   0.91965   0.00000  Uiso   1.00
GAFF2_ca    C     0.63849   0.81558   0.92856   0.00000  Uiso   1.00
GAFF2_ca    C     0.65229   0.84117   0.95702   0.00000  Uiso   1.00
GAFF2_ca    C     0.66494   0.79460   0.90528   0.00000  Uiso   1.00
GAFF2_ca    C     0.65143   0.77102   0.87566   0.00000  Uiso   1.00
GAFF2_ca    C     0.61320   0.76700   0.86877   0.00000  Uiso   1.00
GAFF2_ca    C     0.58560   0.78827   0.89061   0.00000  Uiso   1.00
GAFF2_ca    C     0.69024   0.83915   0.96795   0.00000  Uiso   1.00
GAFF2_ca    C     0.70318   0.79258   0.91649   0.00000  Uiso   1.00
GAFF2_ca    C     0.71554   0.81558   0.94725   0.00000  Uiso   1.00
GAFF2_ca    C     0.77878   0.78655   0.93834   0.00000  Uiso   1.00
GAFF2_ca    C     0.73077   0.76872   0.89550   0.00000  Uiso   1.00
GAFF2_ca    C     0.62584   0.86647   0.97600   0.00000  Uiso   1.00
GAFF2_ca    C     0.70231   0.85957   1.00072   0.00000  Uiso   1.00
GAFF2_ca    C     0.74026   0.85640   1.01567   0.00000  Uiso   1.00
GAFF2_ca    C     0.76757   0.83312   0.99353   0.00000  Uiso   1.00
GAFF2_ca    C     0.75464   0.81472   0.95903   0.00000  Uiso   1.00
GAFF2_h4    H     0.80897   0.78195   0.94437   0.00000  Uiso   1.00
GAFF2_ca    C     0.68047   0.75090   0.85123   0.00000  Uiso   1.00
GAFF2_ca    C     0.71956   0.74946   0.86388   0.00000  Uiso   1.00
GAFF2_ca    C     0.58531   0.86618   0.96766   0.00000  Uiso   1.00
GAFF2_nb    N     0.76613   0.76498   0.90815   0.00000  Uiso   1.00
GAFF2_ca    C     0.57324   0.83714   0.94351   0.00000  Uiso   1.00
GAFF2_ha    H     0.54190   0.83513   0.94064   0.00000  Uiso   1.00
GAFF2_c3    C     0.74687   0.72100   0.84002   0.00000  Uiso   1.00
GAFF2_c3    C     0.76700   0.74141   0.80408   0.00000  Uiso   1.00
GAFF2_hc    H     0.79546   0.75119   0.81386   0.00000  Uiso   1.00
GAFF2_hc    H     0.75004   0.76613   0.79345   0.00000  Uiso   1.00
GAFF2_hc    H     0.76930   0.70691   0.85727   0.00000  Uiso   1.00
GAFF2_hc    H     0.72991   0.69685   0.82823   0.00000  Uiso   1.00
GAFF2_os    O     0.77275   0.71238   0.77648   0.00000  Uiso   1.00
GAFF2_ca    C     0.67587   0.88630   1.01768   0.00000  Uiso   1.00
GAFF2_ca    C     0.68507   0.90413   1.05304   0.00000  Uiso   1.00
GAFF2_ca    C     0.71985   0.89550   1.07086   0.00000  Uiso   1.00
GAFF2_c3    C     0.73365   0.91447   1.10852   0.00000  Uiso   1.00
GAFF2_c3    C     0.71870   0.89090   1.14273   0.00000  Uiso   1.00
GAFF2_c3    C     0.73192   0.91016   1.18068   0.00000  Uiso   1.00
GAFF2_c     C     0.77447   0.90240   1.19247   0.00000  Uiso   1.00
GAFF2_hc    H     0.72876   0.94179   1.18212   0.00000  Uiso   1.00
GAFF2_hc    H     0.68708   0.89090   1.13986   0.00000  Uiso   1.00
GAFF2_hc    H     0.72215   0.85957   1.14245   0.00000  Uiso   1.00
GAFF2_hc    H     0.72301   0.94409   1.10910   0.00000  Uiso   1.00
GAFF2_hc    H     0.76498   0.91649   1.10680   0.00000  Uiso   1.00
GAFF2_ha    H     0.66408   0.92022   1.07000   0.00000  Uiso   1.00
GAFF2_c3    C     0.55254   0.89176   0.98864   0.00000  Uiso   1.00
GAFF2_c3    C     0.55455   0.89579   1.03435   0.00000  Uiso   1.00
GAFF2_c3    C     0.56174   0.85324   1.05189   0.00000  Uiso   1.00
GAFF2_os    O     0.54506   0.85382   1.09013   0.00000  Uiso   1.00
GAFF2_c3    C     0.56806   0.86963   1.12204   0.00000  Uiso   1.00
GAFF2_c3    C     0.58790   0.83743   1.14446   0.00000  Uiso   1.00
GAFF2_ca    C     0.59221   0.88860   1.19879   0.00000  Uiso   1.00
GAFF2_hc    H     0.60888   0.82392   1.12491   0.00000  Uiso   1.00
GAFF2_hc    H     0.57036   0.81386   1.15625   0.00000  Uiso   1.00
GAFF2_hc    H     0.59278   0.88803   1.11456   0.00000  Uiso   1.00
GAFF2_hc    H     0.59250   0.84634   1.05362   0.00000  Uiso   1.00
GAFF2_hc    H     0.54679   0.83024   1.03637   0.00000  Uiso   1.00
GAFF2_hc    H     0.57726   0.91649   1.04183   0.00000  Uiso   1.00
GAFF2_hc    H     0.52781   0.90671   1.04672   0.00000  Uiso   1.00
GAFF2_hc    H     0.52408   0.88141   0.97973   0.00000  Uiso   1.00
GAFF2_hc    H     0.55167   0.92051   0.97600   0.00000  Uiso   1.00
GAFF2_c3    C     0.59997   0.74515   0.83111   0.00000  Uiso   1.00
GAFF2_c3    C     0.62901   0.75119   0.79920   0.00000  Uiso   1.00
GAFF2_c3    C     0.61492   0.73480   0.75809   0.00000  Uiso   1.00
GAFF2_hc    H     0.58330   0.73509   0.75521   0.00000  Uiso   1.00
GAFF2_hc    H     0.62009   0.70346   0.75636   0.00000  Uiso   1.00
GAFF2_hc    H     0.63821   0.78137   0.79575   0.00000  Uiso   1.00
GAFF2_hc    H     0.57209   0.75521   0.82018   0.00000  Uiso   1.00
GAFF2_hc    H     0.59652   0.71381   0.83513   0.00000  Uiso   1.00
GAFF2_c3    C     0.66235   0.83197   0.72445   0.00000  Uiso   1.00
GAFF2_c3    C     0.63016   0.75751   0.72474   0.00000  Uiso   1.00
GAFF2_ss    S     0.61665   0.80782   0.72646   0.00000  Uiso   1.00
GAFF2_hc    H     0.61952   0.74486   0.69771   0.00000  Uiso   1.00
GAFF2_c3    C     0.65258   0.87509   0.72416   0.00000  Uiso   1.00
GAFF2_c     C     0.64194   0.89378   0.76383   0.00000  Uiso   1.00
GAFF2_c3    C     0.62584   0.86934   0.79661   0.00000  Uiso   1.00
GAFF2_hc    H     0.64367   0.84347   0.80006   0.00000  Uiso   1.00
GAFF2_hc    H     0.59623   0.85899   0.79115   0.00000  Uiso   1.00
GAFF2_hc    H     0.62786   0.88113   0.70576   0.00000  Uiso   1.00
GAFF2_ca    C     0.50050   0.99066   1.25514   0.00000  Uiso   1.00
GAFF2_ca    C     0.55800   0.94955   1.24048   0.00000  Uiso   1.00
GAFF2_ca    C     0.53960   0.97657   1.26376   0.00000  Uiso   1.00
GAFF2_ca    C     0.55656   0.98979   1.29884   0.00000  Uiso   1.00
GAFF2_ca    C     0.59480   0.93287   1.25255   0.00000  Uiso   1.00
GAFF2_ca    C     0.47952   1.01251   1.28274   0.00000  Uiso   1.00
GAFF2_ca    C     0.49878   1.02515   1.31551   0.00000  Uiso   1.00
GAFF2_ca    C     0.61291   0.95098   1.28360   0.00000  Uiso   1.00
GAFF2_ca    C     0.59307   0.97801   1.30746   0.00000  Uiso   1.00
GAFF2_ca    C     0.53644   1.01308   1.32413   0.00000  Uiso   1.00
GAFF2_ca    C     0.50165   0.94926   1.19822   0.00000  Uiso   1.00
GAFF2_c2    C     0.47176   1.04384   1.33707   0.00000  Uiso   1.00
GAFF2_c2    C     0.44186   1.02515   1.28705   0.00000  Uiso   1.00
GAFF2_na    N     0.43496   1.04729   1.32040   0.00000  Uiso   1.00
GAFF2_hn    H     0.41081   1.04585   1.33650   0.00000  Uiso   1.00
GAFF2_ca    C     0.53903   0.93489   1.20799   0.00000  Uiso   1.00
GAFF2_ca    C     0.55857   0.90384   1.18471   0.00000  Uiso   1.00
GAFF2_ca    C     0.63734   0.83456   1.19822   0.00000  Uiso   1.00
GAFF2_ca    C     0.65114   0.84174   1.23415   0.00000  Uiso   1.00
GAFF2_ca    C     0.63648   0.87423   1.25399   0.00000  Uiso   1.00
GAFF2_ca    C     0.48469   0.97743   1.22035   0.00000  Uiso   1.00
GAFF2_ha    H     0.61061   0.99382   1.32816   0.00000  Uiso   1.00
GAFF2_ha    H     0.54765   1.01883   1.35288   0.00000  Uiso   1.00
GAFF2_h4    H     0.41742   1.00733   1.27871   0.00000  Uiso   1.00
GAFF2_ha    H     0.64511   0.80782   1.18384   0.00000  Uiso   1.00
GAFF2_ha    H     0.48642   0.93805   1.17292   0.00000  Uiso   1.00
GAFF2_c3    C     0.47664   1.05218   1.37991   0.00000  Uiso   1.00
GAFF2_c3    C     0.48268   1.09472   1.39112   0.00000  Uiso   1.00
GAFF2_c3    C     0.50913   1.11744   1.36266   0.00000  Uiso   1.00
GAFF2_c     C     0.54909   1.09530   1.35863   0.00000  Uiso   1.00
GAFF2_o     O     0.56375   1.07748   1.38565   0.00000  Uiso   1.00
GAFF2_c3    C     0.57554   1.11370   1.32960   0.00000  Uiso   1.00
GAFF2_c3    C     0.61118   1.08840   1.31896   0.00000  Uiso   1.00
GAFF2_c3    C     0.63274   1.10622   1.28504   0.00000  Uiso   1.00
GAFF2_hc    H     0.65919   1.08898   1.28762   0.00000  Uiso   1.00
GAFF2_hc    H     0.60371   1.05793   1.31580   0.00000  Uiso   1.00
GAFF2_hc    H     0.63159   1.08380   1.34282   0.00000  Uiso   1.00
GAFF2_hc    H     0.55742   1.12290   1.30545   0.00000  Uiso   1.00
GAFF2_hc    H     0.49705   1.11657   1.33362   0.00000  Uiso   1.00
GAFF2_hc    H     0.49245   1.10191   1.42044   0.00000  Uiso   1.00
GAFF2_hc    H     0.50367   1.03694   1.38709   0.00000  Uiso   1.00
GAFF2_hc    H     0.45336   1.03982   1.39715   0.00000  Uiso   1.00
GAFF2_ca    C     0.65402   1.16803   1.25399   0.00000  Uiso   1.00
GAFF2_ca    C     0.66379   1.20799   1.25428   0.00000  Uiso   1.00
GAFF2_ca    C     0.65488   1.22927   1.28820   0.00000  Uiso   1.00
GAFF2_ca    C     0.63648   1.15050   1.28705   0.00000  Uiso   1.00
GAFF2_ca    C     0.68650   1.28475   1.25658   0.00000  Uiso   1.00
GAFF2_ca    C     0.62211   1.17148   1.31867   0.00000  Uiso   1.00
GAFF2_ca    C     0.66695   1.26865   1.28906   0.00000  Uiso   1.00
GAFF2_ca    C     0.67960   1.16631   1.18816   0.00000  Uiso   1.00
GAFF2_ca    C     0.66063   1.14705   1.21863   0.00000  Uiso   1.00
GAFF2_ca    C     0.64252   1.10852   1.21403   0.00000  Uiso   1.00
GAFF2_ca    C     0.68650   1.14417   1.15481   0.00000  Uiso   1.00
GAFF2_ca    C     0.66925   1.10824   1.14762   0.00000  Uiso   1.00
GAFF2_ca    C     0.64827   1.08840   1.17838   0.00000  Uiso   1.00
GAFF2_ca    C     0.68852   1.20627   1.19132   0.00000  Uiso   1.00
GAFF2_ha    H     0.67759   1.09530   1.12031   0.00000  Uiso   1.00
GAFF2_ca    C     0.66264   1.28734   1.32586   0.00000  Uiso   1.00
GAFF2_ca    C     0.64396   1.26923   1.35748   0.00000  Uiso   1.00
GAFF2_nb    N     0.69196   1.26491   1.22409   0.00000  Uiso   1.00
GAFF2_ca    C     0.63447   1.21115   1.31925   0.00000  Uiso   1.00
GAFF2_ca    C     0.62958   1.23272   1.35346   0.00000  Uiso   1.00
GAFF2_ca    C     0.68104   1.22639   1.22380   0.00000  Uiso   1.00
GAFF2_c3    C     0.67874   1.32557   1.33736   0.00000  Uiso   1.00
GAFF2_c3    C     0.67615   1.32356   1.38249   0.00000  Uiso   1.00
GAFF2_c3    C     0.71726   1.30947   1.39888   0.00000  Uiso   1.00
GAFF2_hc    H     0.71784   1.31177   1.43021   0.00000  Uiso   1.00
GAFF2_hc    H     0.72014   1.27814   1.39572   0.00000  Uiso   1.00
GAFF2_hc    H     0.66580   1.35029   1.39572   0.00000  Uiso   1.00
GAFF2_hc    H     0.70778   1.33333   1.32758   0.00000  Uiso   1.00
GAFF2_hc    H     0.66293   1.34972   1.32500   0.00000  Uiso   1.00
GAFF2_h4    H     0.69858   1.31378   1.25830   0.00000  Uiso   1.00
GAFF2_ha    H     0.70289   1.22122   1.16774   0.00000  Uiso   1.00
GAFF2_ha    H     0.70663   1.15423   1.13325   0.00000  Uiso   1.00
GAFF2_ha    H     0.62153   1.21719   1.37933   0.00000  Uiso   1.00
GAFF2_c3    C     0.63016   1.04873   1.16889   0.00000  Uiso   1.00
GAFF2_c3    C     0.65862   1.01624   1.16832   0.00000  Uiso   1.00
GAFF2_c3    C     0.64712   0.97312   1.15768   0.00000  Uiso   1.00
GAFF2_hc    H     0.61923   0.96593   1.17091   0.00000  Uiso   1.00
GAFF2_hc    H     0.64827   0.96823   1.12635   0.00000  Uiso   1.00
GAFF2_hc    H     0.68104   1.02717   1.14877   0.00000  Uiso   1.00
GAFF2_hc    H     0.67242   1.01509   1.19678   0.00000  Uiso   1.00
GAFF2_hc    H     0.60457   1.04068   1.18557   0.00000  Uiso   1.00
GAFF2_os    O     0.75119   1.32960   1.38249   0.00000  Uiso   1.00
GAFF2_c3    C     0.78942   1.32011   1.39629   0.00000  Uiso   1.00
GAFF2_c3    C     0.80092   1.27785   1.38364   0.00000  Uiso   1.00
GAFF2_c3    C     0.79057   1.26348   1.34282   0.00000  Uiso   1.00
GAFF2_c3    C     0.79747   1.29625   1.31378   0.00000  Uiso   1.00
GAFF2_hc    H     0.82478   1.31120   1.31925   0.00000  Uiso   1.00
GAFF2_hc    H     0.77361   1.31666   1.31781   0.00000  Uiso   1.00
GAFF2_hc    H     0.76010   1.25600   1.34081   0.00000  Uiso   1.00
GAFF2_hc    H     0.83139   1.27440   1.39112   0.00000  Uiso   1.00
GAFF2_hc    H     0.78655   1.26003   1.40549   0.00000  Uiso   1.00
GAFF2_hc    H     0.80868   1.33678   1.37761   0.00000  Uiso   1.00
GAFF2_hc    H     0.79603   1.32816   1.42619   0.00000  Uiso   1.00
GAFF2_ca    C     0.79632   1.15481   1.19046   0.00000  Uiso   1.00
GAFF2_ca    C     0.79230   1.19534   1.18298   0.00000  Uiso   1.00
GAFF2_ca    C     0.79891   1.13957   1.22869   0.00000  Uiso   1.00
GAFF2_ca    C     0.82306   1.08553   1.08323   0.00000  Uiso   1.00
GAFF2_ca    C     0.82823   1.05994   1.05189   0.00000  Uiso   1.00
GAFF2_ca    C     0.81357   1.07086   1.01596   0.00000  Uiso   1.00
GAFF2_ca    C     0.79460   1.21892   1.21460   0.00000  Uiso   1.00
GAFF2_ca    C     0.80552   1.16487   1.25945   0.00000  Uiso   1.00
GAFF2_ca    C     0.80121   1.20454   1.25370   0.00000  Uiso   1.00
GAFF2_ca    C     0.78195   1.20770   1.14676   0.00000  Uiso   1.00
GAFF2_ca    C     0.78712   1.26003   1.20914   0.00000  Uiso   1.00
GAFF2_ca    C     0.78913   1.28676   1.24048   0.00000  Uiso   1.00
GAFF2_ca    C     0.79690   1.27268   1.27699   0.00000  Uiso   1.00
GAFF2_ca    C     0.80264   1.23300   1.28389   0.00000  Uiso   1.00
GAFF2_hc    H     0.78137   1.06713   1.14360   0.00000  Uiso   1.00
GAFF2_ca    C     0.78051   1.18097   1.11542   0.00000  Uiso   1.00
GAFF2_ca    C     0.79143   1.14130   1.11830   0.00000  Uiso   1.00
GAFF2_ca    C     0.77735   1.27440   1.17033   0.00000  Uiso   1.00
GAFF2_ca    C     0.77361   1.24738   1.14130   0.00000  Uiso   1.00
GAFF2_ca    C     0.76843   1.19419   1.07690   0.00000  Uiso   1.00
GAFF2_ca    C     0.75550   1.23300   1.07144   0.00000  Uiso   1.00
GAFF2_ca    C     0.76010   1.25830   1.10392   0.00000  Uiso   1.00
GAFF2_ca    C     0.79718   1.11830   1.08265   0.00000  Uiso   1.00
GAFF2_ca    C     0.78827   1.13353   1.04557   0.00000  Uiso   1.00
GAFF2_ca    C     0.76872   1.17004   1.04413   0.00000  Uiso   1.00
GAFF2_c3    C     0.74112   1.25025   1.03464   0.00000  Uiso   1.00
GAFF2_hc    H     0.76326   1.26606   1.01825   0.00000  Uiso   1.00
GAFF2_hc    H     0.72071   1.27325   1.04125   0.00000  Uiso   1.00
GAFF2_ca    C     0.79546   1.12836   1.15653   0.00000  Uiso   1.00
GAFF2_ha    H     0.75579   1.28877   1.09846   0.00000  Uiso   1.00
GAFF2_ha    H     0.80839   1.15423   1.28877   0.00000  Uiso   1.00
GAFF2_ha    H     0.78655   1.31781   1.23530   0.00000  Uiso   1.00
GAFF2_c3    C     0.76728   1.31810   1.16228   0.00000  Uiso   1.00
GAFF2_c3    C     0.80006   1.34225   1.14273   0.00000  Uiso   1.00
GAFF2_hc    H     0.80897   1.33132   1.11427   0.00000  Uiso   1.00
GAFF2_hc    H     0.76355   1.33563   1.18816   0.00000  Uiso   1.00
GAFF2_c3    C     0.72416   1.21863   1.00676   0.00000  Uiso   1.00
GAFF2_os    O     0.71496   1.23070   0.96852   0.00000  Uiso   1.00
GAFF2_c3    C     0.73135   1.26463   0.95070   0.00000  Uiso   1.00
GAFF2_c3    C     0.71726   1.30574   0.96795   0.00000  Uiso   1.00
GAFF2_c3    C     0.67242   1.30976   0.96536   0.00000  Uiso   1.00
GAFF2_hc    H     0.66120   1.29826   0.93805   0.00000  Uiso   1.00
GAFF2_hc    H     0.66379   1.33966   0.95875   0.00000  Uiso   1.00
GAFF2_hc    H     0.73077   1.31378   0.99526   0.00000  Uiso   1.00
GAFF2_hc    H     0.73192   1.32787   0.95127   0.00000  Uiso   1.00
GAFF2_hc    H     0.72129   1.26405   0.92080   0.00000  Uiso   1.00
GAFF2_hc    H     0.76269   1.26146   0.95213   0.00000  Uiso   1.00
GAFF2_ca    C     0.87049   1.08121   0.86359   0.00000  Uiso   1.00
GAFF2_ca    C     0.83024   1.07604   0.86762   0.00000  Uiso   1.00
GAFF2_ca    C     0.77648   1.02803   0.87078   0.00000  Uiso   1.00
GAFF2_ca    C     0.76786   0.99152   0.88256   0.00000  Uiso   1.00
GAFF2_ca    C     0.81673   1.03809   0.87222   0.00000  Uiso   1.00
GAFF2_ca    C     0.84260   1.00733   0.87796   0.00000  Uiso   1.00
GAFF2_ss    S     0.81386   0.96795   0.89061   0.00000  Uiso   1.00
GAFF2_ca    C     0.74745   1.05390   0.86330   0.00000  Uiso   1.00
GAFF2_ca    C     0.70778   1.04212   0.86474   0.00000  Uiso   1.00
GAFF2_c3    C     0.67385   1.07058   0.85784   0.00000  Uiso   1.00
GAFF2_hc    H     0.65172   1.05591   0.84088   0.00000  Uiso   1.00
GAFF2_hc    H     0.68449   1.09760   0.84490   0.00000  Uiso   1.00
GAFF2_c3    C     0.65431   1.08380   0.89464   0.00000  Uiso   1.00
GAFF2_c3    C     0.61808   1.14647   0.94265   0.00000  Uiso   1.00
GAFF2_c3    C     0.59163   1.16315   0.97743   0.00000  Uiso   1.00
GAFF2_c3    C     0.57381   1.19937   1.22265   0.00000  Uiso   1.00
GAFF2_c3    C     0.58732   1.21115   1.18269   0.00000  Uiso   1.00
GAFF2_ca    C     0.66120   1.36151   1.10939   0.00000  Uiso   1.00
GAFF2_ca    C     0.67702   1.37674   1.07259   0.00000  Uiso   1.00
GAFF2_ca    C     0.65517   1.31810   1.03780   0.00000  Uiso   1.00
GAFF2_ca    C     0.67615   1.35374   1.03838   0.00000  Uiso   1.00
GAFF2_ca    C     0.65057   1.29797   1.00072   0.00000  Uiso   1.00
GAFF2_ca    C     0.66350   1.38163   1.14561   0.00000  Uiso   1.00
GAFF2_ca    C     0.64108   1.36611   1.17723   0.00000  Uiso   1.00
GAFF2_ca    C     0.62527   1.33075   1.17493   0.00000  Uiso   1.00
GAFF2_ca    C     0.61406   1.31867   1.20943   0.00000  Uiso   1.00
GAFF2_c2    C     0.63993   1.37646   1.21604   0.00000  Uiso   1.00
GAFF2_na    N     0.62527   1.34455   1.23760   0.00000  Uiso   1.00
GAFF2_c3    C     0.67155   1.40348   1.22984   0.00000  Uiso   1.00
GAFF2_c3    C     0.70433   1.41239   1.19822   0.00000  Uiso   1.00
GAFF2_c3    C     0.72962   1.44775   1.21000   0.00000  Uiso   1.00
GAFF2_c3    C     0.76211   1.45810   1.17953   0.00000  Uiso   1.00
GAFF2_hc    H     0.77993   1.48225   1.18988   0.00000  Uiso   1.00
GAFF2_hc    H     0.75061   1.46615   1.15107   0.00000  Uiso   1.00
GAFF2_hc    H     0.74630   1.44143   1.23617   0.00000  Uiso   1.00
GAFF2_hc    H     0.68679   1.39054   1.25428   0.00000  Uiso   1.00
GAFF2_hc    H     0.65890   1.43050   1.24019   0.00000  Uiso   1.00
GAFF2_hn    H     0.61780   1.34541   1.26578   0.00000  Uiso   1.00
GAFF2_ha    H     0.68765   1.36726   1.01251   0.00000  Uiso   1.00
GAFF2_ca    C     0.59853   1.25543   1.18011   0.00000  Uiso   1.00
GAFF2_hc    H     0.71180   1.47362   1.21345   0.00000  Uiso   1.00
GAFF2_hc    H     0.72273   1.38652   1.19879   0.00000  Uiso   1.00
GAFF2_hc    H     0.56461   1.20310   1.16228   0.00000  Uiso   1.00
GAFF2_hc    H     0.61032   1.19103   1.17436   0.00000  Uiso   1.00
GAFF2_hc    H     0.57784   1.16918   1.23099   0.00000  Uiso   1.00
GAFF2_hc    H     0.54305   1.20627   1.22582   0.00000  Uiso   1.00
GAFF2_hc    H     0.58732   1.13900   0.99756   0.00000  Uiso   1.00
GAFF2_hc    H     0.66782   0.95213   1.16889   0.00000  Uiso   1.00
GAFF2_ca    C     0.72991   0.97657   0.87883   0.00000  Uiso   1.00
GAFF2_ca    C     0.69915   1.00273   0.87365   0.00000  Uiso   1.00
GAFF2_ca    C     0.60888   0.90039   1.23530   0.00000  Uiso   1.00
GAFF2_ca    C     0.88256   1.01308   0.87825   0.00000  Uiso   1.00
GAFF2_ca    C     0.89579   1.04959   0.86675   0.00000  Uiso   1.00
GAFF2_ha    H     0.92655   1.05534   0.86877   0.00000  Uiso   1.00
GAFF2_ha    H     0.89981   0.99123   0.89234   0.00000  Uiso   1.00
GAFF2_ha    H     0.64482   0.87911   1.28389   0.00000  Uiso   1.00
GAFF2_ca    C     0.62757   1.30832   1.14158   0.00000  Uiso   1.00
GAFF2_ca    C     0.64079   1.32500   1.10737   0.00000  Uiso   1.00
GAFF2_ca    C     0.63878   1.30401   1.07259   0.00000  Uiso   1.00
GAFF2_ca    C     0.61751   1.26894   1.07201   0.00000  Uiso   1.00
GAFF2_ca    C     0.62843   1.26405   1.00302   0.00000  Uiso   1.00
GAFF2_ca    C     0.61262   1.24910   1.03637   0.00000  Uiso   1.00
GAFF2_ca    C     0.60687   1.24996   1.10766   0.00000  Uiso   1.00
GAFF2_ca    C     0.60917   1.27095   1.14273   0.00000  Uiso   1.00
GAFF2_ha    H     0.59681   1.22035   1.10737   0.00000  Uiso   1.00
GAFF2_c3    C     0.69254   1.41900   1.06454   0.00000  Uiso   1.00
GAFF2_c3    C     0.73509   1.42619   1.05821   0.00000  Uiso   1.00
GAFF2_c3    C     0.74716   1.46874   1.05706   0.00000  Uiso   1.00
GAFF2_hc    H     0.73422   1.48484   1.08121   0.00000  Uiso   1.00
GAFF2_hc    H     0.77763   1.47449   1.06368   0.00000  Uiso   1.00
GAFF2_hc    H     0.73767   1.48426   1.03119   0.00000  Uiso   1.00
GAFF2_hc    H     0.74975   1.41527   1.08380   0.00000  Uiso   1.00
GAFF2_hc    H     0.68162   1.43970   1.08581   0.00000  Uiso   1.00
GAFF2_hc    H     0.67242   0.82162   0.69599   0.00000  Uiso   1.00
GAFF2_ha    H     0.88314   1.10967   0.86014   0.00000  Uiso   1.00
GAFF2_hc    H     0.82507   1.07288   1.16832   0.00000  Uiso   1.00
GAFF2_os    O     0.78367   1.12060   0.97628   0.00000  Uiso   1.00
GAFF2_c3    C     0.79373   1.09846   0.94121   0.00000  Uiso   1.00
GAFF2_c3    C     0.79718   1.12750   0.90758   0.00000  Uiso   1.00
GAFF2_c3    C     0.80006   1.10795   0.86819   0.00000  Uiso   1.00
GAFF2_hc    H     0.81012   1.13296   0.85180   0.00000  Uiso   1.00
GAFF2_hc    H     0.82191   1.14733   0.90758   0.00000  Uiso   1.00
GAFF2_hc    H     0.77073   1.14475   0.91045   0.00000  Uiso   1.00
GAFF2_hc    H     0.82191   1.08409   0.94236   0.00000  Uiso   1.00
GAFF2_hc    H     0.77217   1.07546   0.93690   0.00000  Uiso   1.00
GAFF2_hc    H     0.68248   0.82478   0.74774   0.00000  Uiso   1.00
GAFF2_hc    H     0.66178   0.75751   0.72100   0.00000  Uiso   1.00
GAFF2_ca    C     0.74659   0.87193   1.05160   0.00000  Uiso   1.00
GAFF2_ha    H     0.77447   0.86589   1.06483   0.00000  Uiso   1.00
GAFF2_hc    H     0.71410   0.90384   1.20598   0.00000  Uiso   1.00
GAFF2_hc    H     0.65488   0.89061   0.64942   0.00000  Uiso   1.00
GAFF2_hc    H     0.56547   1.17551   0.96507   0.00000  Uiso   1.00
GAFF2_hc    H     0.78971   1.37128   1.13555   0.00000  Uiso   1.00
GAFF2_hc    H     0.74055   1.32155   1.14590   0.00000  Uiso   1.00
GAFF2_hc    H     0.69685   1.20972   1.01969   0.00000  Uiso   1.00
GAFF2_hc    H     0.45451   1.10852   1.38939   0.00000  Uiso   1.00
GAFF2_hc    H     0.74400   1.40808   1.03378   0.00000  Uiso   1.00
GAFF2_hc    H     0.67903   1.43194   1.03895   0.00000  Uiso   1.00
GAFF2_c3    C     0.72474   0.93259   0.87998   0.00000  Uiso   1.00
GAFF2_c3    C     0.68909   0.92367   0.85497   0.00000  Uiso   1.00
GAFF2_c3    C     0.65344   0.94294   0.87135   0.00000  Uiso   1.00
GAFF2_c3    C     0.65718   0.98721   0.86503   0.00000  Uiso   1.00
GAFF2_hc    H     0.74802   0.91591   0.86647   0.00000  Uiso   1.00
GAFF2_hc    H     0.71870   0.92626   0.91045   0.00000  Uiso   1.00
GAFF2_hc    H     0.69628   0.93316   0.82564   0.00000  Uiso   1.00
GAFF2_hc    H     0.65086   0.93690   0.90211   0.00000  Uiso   1.00
GAFF2_hc    H     0.64942   0.99353   0.83484   0.00000  Uiso   1.00
GAFF2_hc    H     0.63562   1.00244   0.88228   0.00000  Uiso   1.00
GAFF2_c3    C     0.67960   1.10996   0.92224   0.00000  Uiso   1.00
GAFF2_c3    C     0.59652   1.11456   0.91764   0.00000  Uiso   1.00
GAFF2_c3    C     0.65747   1.12549   0.95472   0.00000  Uiso   1.00
GAFF2_hc    H     0.62412   1.16947   0.92166   0.00000  Uiso   1.00
GAFF2_hc    H     0.69196   1.13555   0.90844   0.00000  Uiso   1.00
GAFF2_hc    H     0.70548   1.09587   0.93402   0.00000  Uiso   1.00
GAFF2_hc    H     0.56950   1.12664   0.90671   0.00000  Uiso   1.00
GAFF2_hc    H     0.58905   1.08754   0.93201   0.00000  Uiso   1.00
GAFF2_hc    H     0.67702   1.14475   0.97025   0.00000  Uiso   1.00
GAFF2_hc    H     0.65172   1.10105   0.97398   0.00000  Uiso   1.00
GAFF2_hc    H     0.64798   1.05678   0.90987   0.00000  Uiso   1.00
GAFF2_c3    C     0.67874   0.88055   0.85152   0.00000  Uiso   1.00
GAFF2_c3    C     0.61780   0.92224   0.85008   0.00000  Uiso   1.00
GAFF2_c3    C     0.63447   0.88199   0.83887   0.00000  Uiso   1.00
GAFF2_hc    H     0.69915   0.86474   0.83312   0.00000  Uiso   1.00
GAFF2_hc    H     0.68104   0.86934   0.88084   0.00000  Uiso   1.00
GAFF2_hc    H     0.60917   0.94121   0.82622   0.00000  Uiso   1.00
GAFF2_hc    H     0.59767   0.91821   0.87423   0.00000  Uiso   1.00
GAFF2_hc    H     0.61808   0.86100   0.85583   0.00000  Uiso   1.00
GAFF2_o     O     0.64396   0.92799   0.76815   0.00000  Uiso   1.00
GAFF2_hc    H     0.69829   0.92310   0.71525   0.00000  Uiso   1.00
GAFF2_hc    H     0.71468   0.87883   0.70749   0.00000  Uiso   1.00
GAFF2_ca    C     0.59911   1.28130   1.21230   0.00000  Uiso   1.00
GAFF2_ha    H     0.59106   1.27009   1.24048   0.00000  Uiso   1.00
GAFF2_os    O     0.59825   1.21173   1.03205   0.00000  Uiso   1.00
GAFF2_c3    C     0.65632   0.94983   1.29280   0.00000  Uiso   1.00
GAFF2_hc    H     0.67155   0.92971   1.27354   0.00000  Uiso   1.00
GAFF2_hc    H     0.66465   0.94092   1.32212   0.00000  Uiso   1.00
GAFF2_c3    C     0.44531   0.99037   1.20569   0.00000  Uiso   1.00
GAFF2_hc    H     0.42231   0.97197   1.21690   0.00000  Uiso   1.00
GAFF2_hc    H     0.44272   0.99209   1.17436   0.00000  Uiso   1.00
GAFF2_hc    H     0.43754   1.01912   1.21690   0.00000  Uiso   1.00
GAFF2_c3    C     0.61262   1.19764   0.99784   0.00000  Uiso   1.00
GAFF2_hc    H     0.63936   1.18499   1.00906   0.00000  Uiso   1.00
GAFF2_os    O     0.62096   1.10594   0.88486   0.00000  Uiso   1.00
GAFF2_hc    H     0.78281   1.43453   1.17436   0.00000  Uiso   1.00
GAFF2_c3    C     0.77706   1.07748   1.20339   0.00000  Uiso   1.00
GAFF2_c3    C     0.77188   1.03694   1.22093   0.00000  Uiso   1.00
GAFF2_c3    C     0.79920   1.09702   1.23703   0.00000  Uiso   1.00
GAFF2_c3    C     0.77878   1.08466   1.27497   0.00000  Uiso   1.00
GAFF2_c3    C     0.76326   1.04413   1.26664   0.00000  Uiso   1.00
GAFF2_hc    H     0.74889   1.09185   1.20310   0.00000  Uiso   1.00
GAFF2_hc    H     0.74975   1.02113   1.20512   0.00000  Uiso   1.00
GAFF2_hc    H     0.79977   1.02199   1.21920   0.00000  Uiso   1.00
GAFF2_hc    H     0.82823   1.08438   1.23731   0.00000  Uiso   1.00
GAFF2_hc    H     0.75607   1.10220   1.28849   0.00000  Uiso   1.00
GAFF2_hc    H     0.80264   1.08351   1.29539   0.00000  Uiso   1.00
GAFF2_hc    H     0.78137   1.02688   1.28590   0.00000  Uiso   1.00
GAFF2_c3    C     0.80926   0.82679   1.00618   0.00000  Uiso   1.00
GAFF2_hc    H     0.81012   0.79776   1.01883   0.00000  Uiso   1.00
GAFF2_hc    H     0.81989   0.84893   1.02602   0.00000  Uiso   1.00
GAFF2_hc    H     0.82708   0.82737   0.98002   0.00000  Uiso   1.00
GAFF2_os    O     0.67127   0.98836   1.28791   0.00000  Uiso   1.00
GAFF2_c3    C     0.71008   0.99324   1.27382   0.00000  Uiso   1.00
GAFF2_c3    C     0.72014   1.03694   1.27469   0.00000  Uiso   1.00
GAFF2_hc    H     0.73106   0.97341   1.28647   0.00000  Uiso   1.00
GAFF2_hc    H     0.70605   0.98721   1.24306   0.00000  Uiso   1.00
GAFF2_hc    H     0.70375   1.04959   1.25083   0.00000  Uiso   1.00
GAFF2_hc    H     0.71238   1.04873   1.30315   0.00000  Uiso   1.00
GAFF2_hc    H     0.82449   1.34052   1.16228   0.00000  Uiso   1.00
GAFF2_c3    C     0.75262   1.18528   1.00388   0.00000  Uiso   1.00
GAFF2_hc    H     0.73250   1.16315   0.99382   0.00000  Uiso   1.00
GAFF2_hc    H     0.77533   1.18586   0.98203   0.00000  Uiso   1.00
GAFF2_c3    C     0.61665   1.09127   1.24651   0.00000  Uiso   1.00
GAFF2_hc    H     0.58732   1.10306   1.24393   0.00000  Uiso   1.00
GAFF2_hc    H     0.61665   1.05994   1.24163   0.00000  Uiso   1.00
GAFF2_c3    C     0.59020   1.15423   1.34541   0.00000  Uiso   1.00
GAFF2_hc    H     0.60543   1.15021   1.37272   0.00000  Uiso   1.00
GAFF2_c3    C     0.53989   0.88946   1.14877   0.00000  Uiso   1.00
GAFF2_hc    H     0.51746   0.86934   1.15797   0.00000  Uiso   1.00
GAFF2_hc    H     0.52523   0.91045   1.13037   0.00000  Uiso   1.00
GAFF2_hc    H     0.58818   1.21317   1.24709   0.00000  Uiso   1.00
GAFF2_c3    C     0.66609   0.73135   0.81501   0.00000  Uiso   1.00
GAFF2_hc    H     0.68938   0.73365   0.79373   0.00000  Uiso   1.00
GAFF2_hc    H     0.66235   0.70030   0.81932   0.00000  Uiso   1.00
GAFF2_c3    C     0.81041   1.22840   1.32672   0.00000  Uiso   1.00
GAFF2_hc    H     0.79460   1.20195   1.33420   0.00000  Uiso   1.00
GAFF2_hc    H     0.84117   1.22840   1.33477   0.00000  Uiso   1.00
GAFF2_os    O     0.63907   0.88975   1.00388   0.00000  Uiso   1.00
GAFF2_c3    C     0.54219   0.77850   0.88831   0.00000  Uiso   1.00
GAFF2_hc    H     0.53443   0.75291   0.87135   0.00000  Uiso   1.00
GAFF2_hc    H     0.53385   0.80408   0.87193   0.00000  Uiso   1.00
GAFF2_hc    H     0.52408   0.77993   0.91419   0.00000  Uiso   1.00
GAFF2_c3    C     0.64396   1.29337   1.39370   0.00000  Uiso   1.00
GAFF2_hc    H     0.65172   1.27584   1.41900   0.00000  Uiso   1.00
GAFF2_hc    H     0.61607   1.30746   1.39773   0.00000  Uiso   1.00
GAFF2_c3    C     0.76125   1.09501   0.85037   0.00000  Uiso   1.00
GAFF2_hc    H     0.76039   1.09559   0.81874   0.00000  Uiso   1.00
GAFF2_hc    H     0.73854   1.11629   0.85640   0.00000  Uiso   1.00
GAFF2_c3    C     0.55282   1.17896   1.34886   0.00000  Uiso   1.00
GAFF2_c3    C     0.51919   1.16113   1.37272   0.00000  Uiso   1.00
GAFF2_hc    H     0.54075   1.18126   1.31953   0.00000  Uiso   1.00
GAFF2_hc    H     0.55944   1.20828   1.35863   0.00000  Uiso   1.00
GAFF2_hc    H     0.49303   1.17867   1.37186   0.00000  Uiso   1.00
GAFF2_hc    H     0.52868   1.16113   1.40290   0.00000  Uiso   1.00
GAFF2_c3    C     0.68938   1.41699   1.15768   0.00000  Uiso   1.00
GAFF2_hc    H     0.71525   1.41613   1.13928   0.00000  Uiso   1.00
GAFF2_hc    H     0.67213   1.44258   1.15222   0.00000  Uiso   1.00
GAFF2_c3    C     0.62326   1.23415   0.97197   0.00000  Uiso   1.00
GAFF2_hc    H     0.59767   1.24335   0.95530   0.00000  Uiso   1.00
GAFF2_hc    H     0.65028   1.23157   0.95587   0.00000  Uiso   1.00
GAFF2_hc    H     0.61952   1.05390   1.13957   0.00000  Uiso   1.00
GAFF2_oh    O     0.77821   0.88026   1.22438   0.00000  Uiso   1.00
GAFF2_o     O     0.80264   0.90873   1.17349   0.00000  Uiso   1.00
GAFF2_ho    H     0.80207   0.86675   1.21920   0.00000  Uiso   1.00
GAFF2_ca    C     0.60831   0.85612   1.17953   0.00000  Uiso   1.00
GAFF2_ha    H     0.66925   0.82133   1.24939   0.00000  Uiso   1.00
GAFF2_c3    C     0.79575   1.08409   1.16602   0.00000  Uiso   1.00
GAFF2_ca    C     0.79345   1.10824   1.01279   0.00000  Uiso   1.00
GAFF2_ha    H     0.82076   1.05247   0.99152   0.00000  Uiso   1.00
GAFF2_ha    H     0.84634   1.03435   1.05333   0.00000  Uiso   1.00
GAFF2_ha    H     0.83973   1.07834   1.10881   0.00000  Uiso   1.00
GAFF2_ca    C     0.34210   0.00805   0.06727   0.00000  Uiso   1.00
GAFF2_ca    C     0.30157   0.01409   0.06267   0.00000  Uiso   1.00
GAFF2_ca    C     0.30070   0.02731   0.13310   0.00000  Uiso   1.00
GAFF2_ca    C     0.28029   0.02386   0.09573   0.00000  Uiso   1.00
GAFF2_ca    C     0.24005   0.03392   0.09257   0.00000  Uiso   1.00
GAFF2_ca    C     0.27771   0.04025   0.16616   0.00000  Uiso   1.00
GAFF2_ca    C     0.28144   0.01207   0.02645   0.00000  Uiso   1.00
GAFF2_ca    C     0.24350   0.01955   0.02415   0.00000  Uiso   1.00
GAFF2_ca    C     0.23775   0.04743   0.16156   0.00000  Uiso   1.00
GAFF2_ca    C     0.22107   0.04686   0.12505   0.00000  Uiso   1.00
GAFF2_ca    C     0.22136   0.03105   0.05663   0.00000  Uiso   1.00
GAFF2_ca    C     0.18169   0.04025   0.05520   0.00000  Uiso   1.00
GAFF2_ca    C     0.18169   0.05721   0.12218   0.00000  Uiso   1.00
GAFF2_ca    C     0.16099   0.05203   0.08624   0.00000  Uiso   1.00
GAFF2_ca    C     0.35993   0.00690   0.10349   0.00000  Uiso   1.00
GAFF2_c2    C     0.23343   0.02041  -0.01552   0.00000  Uiso   1.00
GAFF2_c2    C     0.29639   0.00805  -0.00977   0.00000  Uiso   1.00
GAFF2_na    N     0.26678   0.01552  -0.03737   0.00000  Uiso   1.00
GAFF2_hn    H     0.26994   0.03450  -0.05922   0.00000  Uiso   1.00
GAFF2_ca    C     0.33894   0.01610   0.13627   0.00000  Uiso   1.00
GAFF2_ha    H     0.16559   0.06756   0.14719   0.00000  Uiso   1.00
GAFF2_ha    H     0.21935   0.06095   0.18284   0.00000  Uiso   1.00
GAFF2_ha    H     0.16760   0.03536   0.02760   0.00000  Uiso   1.00
GAFF2_ha    H     0.36050   0.00057   0.04283   0.00000  Uiso   1.00
GAFF2_h4    H     0.21015   0.03536  -0.03019   0.00000  Uiso   1.00
GAFF2_h4    H     0.32658   0.00891  -0.01811   0.00000  Uiso   1.00
GAFF2_ha    H     0.39040   0.00057   0.10723   0.00000  Uiso   1.00
GAFF2_c3    C     0.35389   0.01121   0.17738   0.00000  Uiso   1.00
GAFF2_c3    C     0.32773   0.00776   0.21417   0.00000  Uiso   1.00
GAFF2_c3    C     0.29668   0.03938   0.20670   0.00000  Uiso   1.00
GAFF2_c3    C     0.11902   0.05577   0.08481   0.00000  Uiso   1.00
GAFF2_c3    C     0.09717   0.02501   0.10809   0.00000  Uiso   1.00
GAFF2_c3    C     0.05980   0.04226   0.12362   0.00000  Uiso   1.00
GAFF2_hc    H     0.09084   0.00115   0.08854   0.00000  Uiso   1.00
GAFF2_hc    H     0.10781   0.05836   0.05548   0.00000  Uiso   1.00
GAFF2_hc    H     0.10896   0.08279   0.09803   0.00000  Uiso   1.00
GAFF2_hc    H     0.31134   0.06727   0.21072   0.00000  Uiso   1.00
GAFF2_hc    H     0.31853  -0.02242   0.21504   0.00000  Uiso   1.00
GAFF2_hc    H     0.34756   0.01064   0.23832   0.00000  Uiso   1.00
GAFF2_hc    H     0.37775   0.03134   0.18284   0.00000  Uiso   1.00
GAFF2_hc    H     0.36654  -0.01754   0.17249   0.00000  Uiso   1.00
GAFF2_ca    C     0.25155   0.24235   0.20095   0.00000  Uiso   1.00
GAFF2_ca    C     0.28173   0.22136   0.21848   0.00000  Uiso   1.00
GAFF2_ca    C     0.31939   0.23746   0.21963   0.00000  Uiso   1.00
GAFF2_ca    C     0.27426   0.18657   0.23832   0.00000  Uiso   1.00
GAFF2_ca    C     0.23832   0.16846   0.23803   0.00000  Uiso   1.00
GAFF2_ca    C     0.20756   0.19031   0.22050   0.00000  Uiso   1.00
GAFF2_ca    C     0.21274   0.22740   0.20411   0.00000  Uiso   1.00
GAFF2_ca    C     0.35044   0.21992   0.23688   0.00000  Uiso   1.00
GAFF2_ca    C     0.30473   0.16760   0.25528   0.00000  Uiso   1.00
GAFF2_ca    C     0.34325   0.18456   0.25643   0.00000  Uiso   1.00
GAFF2_ca    C     0.36510   0.12965   0.29438   0.00000  Uiso   1.00
GAFF2_ca    C     0.29984   0.12994   0.27512   0.00000  Uiso   1.00
GAFF2_ca    C     0.32457   0.27368   0.20210   0.00000  Uiso   1.00
GAFF2_ca    C     0.38810   0.23746   0.23602   0.00000  Uiso   1.00
GAFF2_ca    C     0.41771   0.21762   0.25442   0.00000  Uiso   1.00
GAFF2_ca    C     0.41138   0.18169   0.27311   0.00000  Uiso   1.00
GAFF2_ca    C     0.37430   0.16473   0.27397   0.00000  Uiso   1.00
GAFF2_h4    H     0.38666   0.11298   0.30962   0.00000  Uiso   1.00
GAFF2_ca    C     0.23027   0.13224   0.25471   0.00000  Uiso   1.00
GAFF2_ca    C     0.26046   0.11212   0.27282   0.00000  Uiso   1.00
GAFF2_ca    C     0.29553   0.29150   0.18111   0.00000  Uiso   1.00
GAFF2_nb    N     0.33031   0.11212   0.29553   0.00000  Uiso   1.00
GAFF2_ca    C     0.25873   0.27857   0.18312   0.00000  Uiso   1.00
GAFF2_ha    H     0.23861   0.29812   0.16961   0.00000  Uiso   1.00
GAFF2_c3    C     0.25557   0.07331   0.29610   0.00000  Uiso   1.00
GAFF2_c3    C     0.27771   0.03910   0.27771   0.00000  Uiso   1.00
GAFF2_hc    H     0.26822   0.01236   0.29150   0.00000  Uiso   1.00
GAFF2_hc    H     0.30847   0.04657   0.27914   0.00000  Uiso   1.00
GAFF2_hc    H     0.26649   0.07532   0.32543   0.00000  Uiso   1.00
GAFF2_hc    H     0.22481   0.06583   0.29467   0.00000  Uiso   1.00
GAFF2_os    O     0.26793   0.03479   0.23717   0.00000  Uiso   1.00
GAFF2_ca    C     0.39155   0.27454   0.21963   0.00000  Uiso   1.00
GAFF2_ca    C     0.42691   0.29438   0.22021   0.00000  Uiso   1.00
GAFF2_ca    C     0.45911   0.27339   0.23487   0.00000  Uiso   1.00
GAFF2_c3    C     0.49907   0.29294   0.23458   0.00000  Uiso   1.00
GAFF2_c3    C     0.50079   0.32543   0.26333   0.00000  Uiso   1.00
GAFF2_c3    C     0.51200   0.31134   0.30329   0.00000  Uiso   1.00
GAFF2_c     C     0.55340   0.30732   0.31450   0.00000  Uiso   1.00
GAFF2_hc    H     0.49763   0.32945   0.32485   0.00000  Uiso   1.00
GAFF2_hc    H     0.52120   0.34785   0.25442   0.00000  Uiso   1.00
GAFF2_hc    H     0.47319   0.34038   0.26649   0.00000  Uiso   1.00
GAFF2_hc    H     0.50970   0.30358   0.20699   0.00000  Uiso   1.00
GAFF2_hc    H     0.52063   0.27023   0.24005   0.00000  Uiso   1.00
GAFF2_ha    H     0.42691   0.32399   0.20986   0.00000  Uiso   1.00
GAFF2_c3    C     0.30214   0.33060   0.16099   0.00000  Uiso   1.00
GAFF2_c3    C     0.31307   0.32543   0.11873   0.00000  Uiso   1.00
GAFF2_c3    C     0.31450   0.36539   0.09602   0.00000  Uiso   1.00
GAFF2_os    O     0.34986   0.38580   0.10579   0.00000  Uiso   1.00
GAFF2_c3    C     0.38580   0.37257   0.08826   0.00000  Uiso   1.00
GAFF2_c3    C     0.41483   0.35418   0.11700   0.00000  Uiso   1.00
GAFF2_ca    C     0.46917   0.37832   0.07245   0.00000  Uiso   1.00
GAFF2_hc    H     0.40506   0.32572   0.12620   0.00000  Uiso   1.00
GAFF2_hc    H     0.41253   0.37142   0.14345   0.00000  Uiso   1.00
GAFF2_hc    H     0.37804   0.35130   0.06612   0.00000  Uiso   1.00
GAFF2_hc    H     0.29007   0.38292   0.10551   0.00000  Uiso   1.00
GAFF2_hc    H     0.31220   0.36223   0.06468   0.00000  Uiso   1.00
GAFF2_hc    H     0.33836   0.30732   0.11269   0.00000  Uiso   1.00
GAFF2_hc    H     0.28949   0.30818   0.10666   0.00000  Uiso   1.00
GAFF2_hc    H     0.32169   0.35303   0.17249   0.00000  Uiso   1.00
GAFF2_hc    H     0.27512   0.34699   0.16185   0.00000  Uiso   1.00
GAFF2_c3    C     0.16731   0.17048   0.21820   0.00000  Uiso   1.00
GAFF2_c3    C     0.16616   0.12592   0.21676   0.00000  Uiso   1.00
GAFF2_c3    C     0.12275   0.11269   0.21992   0.00000  Uiso   1.00
GAFF2_hc    H     0.11125   0.12304   0.19232   0.00000  Uiso   1.00
GAFF2_hc    H     0.11010   0.12419   0.24666   0.00000  Uiso   1.00
GAFF2_hc    H     0.17881   0.11355   0.19060   0.00000  Uiso   1.00
GAFF2_hc    H     0.15064   0.17853   0.19261   0.00000  Uiso   1.00
GAFF2_hc    H     0.15265   0.18197   0.24378   0.00000  Uiso   1.00
GAFF2_c3    C     0.06382   0.01322   0.19060   0.00000  Uiso   1.00
GAFF2_c3    C     0.11557   0.06871   0.21877   0.00000  Uiso   1.00
GAFF2_ss    S     0.06353   0.05750   0.22050   0.00000  Uiso   1.00
GAFF2_hc    H     0.12764   0.05893   0.24637   0.00000  Uiso   1.00
GAFF2_c3    C     0.03996   0.01495   0.15351   0.00000  Uiso   1.00
GAFF2_c     C    -0.00431   0.01782   0.16041   0.00000  Uiso   1.00
GAFF2_c3    C    -0.02990   0.02846   0.12707   0.00000  Uiso   1.00
GAFF2_hc    H    -0.05548   0.01006   0.12735   0.00000  Uiso   1.00
GAFF2_hc    H    -0.01581   0.02156   0.09947   0.00000  Uiso   1.00
GAFF2_hc    H     0.04226  -0.01437   0.14144   0.00000  Uiso   1.00
GAFF2_ca    C     0.48728   0.49245  -0.02242   0.00000  Uiso   1.00
GAFF2_ca    C     0.49590   0.43151   0.01811   0.00000  Uiso   1.00
GAFF2_ca    C     0.51028   0.45968  -0.00977   0.00000  Uiso   1.00
GAFF2_ca    C     0.54679   0.45364  -0.02444   0.00000  Uiso   1.00
GAFF2_ca    C     0.52034   0.40017   0.02990   0.00000  Uiso   1.00
GAFF2_ca    C     0.50194   0.51430  -0.05462   0.00000  Uiso   1.00
GAFF2_ca    C     0.53845   0.50654  -0.06900   0.00000  Uiso   1.00
GAFF2_ca    C     0.55397   0.39212   0.00834   0.00000  Uiso   1.00
GAFF2_ca    C     0.56979   0.42202  -0.01351   0.00000  Uiso   1.00
GAFF2_ca    C     0.55915   0.47549  -0.05606   0.00000  Uiso   1.00
GAFF2_ca    C     0.43496   0.46802   0.02185   0.00000  Uiso   1.00
GAFF2_c2    C     0.54449   0.53414  -0.09746   0.00000  Uiso   1.00
GAFF2_c2    C     0.48814   0.54650  -0.07273   0.00000  Uiso   1.00
GAFF2_na    N     0.51344   0.55972  -0.10148   0.00000  Uiso   1.00
GAFF2_hn    H     0.52034   0.58790  -0.10263   0.00000  Uiso   1.00
GAFF2_ca    C     0.45882   0.43611   0.03306   0.00000  Uiso   1.00
GAFF2_ca    C     0.44416   0.40736   0.05721   0.00000  Uiso   1.00
GAFF2_ca    C     0.48009   0.32457   0.11844   0.00000  Uiso   1.00
GAFF2_ca    C     0.51718   0.32658   0.10867   0.00000  Uiso   1.00
GAFF2_ca    C     0.53270   0.35360   0.08337   0.00000  Uiso   1.00
GAFF2_ca    C     0.45019   0.49504  -0.00460   0.00000  Uiso   1.00
GAFF2_ha    H     0.59652   0.41627  -0.02904   0.00000  Uiso   1.00
GAFF2_ha    H     0.58732   0.47032  -0.06928   0.00000  Uiso   1.00
GAFF2_h4    H     0.45882   0.55771  -0.07359   0.00000  Uiso   1.00
GAFF2_ha    H     0.46917   0.30387   0.13943   0.00000  Uiso   1.00
GAFF2_ha    H     0.40851   0.47405   0.03737   0.00000  Uiso   1.00
GAFF2_c3    C     0.58157   0.53874  -0.12247   0.00000  Uiso   1.00
GAFF2_c3    C     0.57784   0.53011  -0.16674   0.00000  Uiso   1.00
GAFF2_c3    C     0.53903   0.51229  -0.17738   0.00000  Uiso   1.00
GAFF2_c     C     0.53011   0.47405  -0.15524   0.00000  Uiso   1.00
GAFF2_o     O     0.55541   0.45307  -0.14144   0.00000  Uiso   1.00
GAFF2_c3    C     0.48642   0.46112  -0.16156   0.00000  Uiso   1.00
GAFF2_c3    C     0.47032   0.43007  -0.13397   0.00000  Uiso   1.00
GAFF2_c3    C     0.42605   0.42461  -0.13713   0.00000  Uiso   1.00
GAFF2_hc    H     0.42030   0.39385  -0.13368   0.00000  Uiso   1.00
GAFF2_hc    H     0.47865   0.43410  -0.10378   0.00000  Uiso   1.00
GAFF2_hc    H     0.48383   0.40247  -0.14202   0.00000  Uiso   1.00
GAFF2_hc    H     0.46888   0.48642  -0.15380   0.00000  Uiso   1.00
GAFF2_hc    H     0.51660   0.53098  -0.16473   0.00000  Uiso   1.00
GAFF2_hc    H     0.60141   0.51171  -0.17709   0.00000  Uiso   1.00
GAFF2_hc    H     0.60256   0.51833  -0.11039   0.00000  Uiso   1.00
GAFF2_hc    H     0.58876   0.56892  -0.11585   0.00000  Uiso   1.00
GAFF2_ca    C     0.37171   0.43266  -0.18686   0.00000  Uiso   1.00
GAFF2_ca    C     0.35935   0.42921  -0.22510   0.00000  Uiso   1.00
GAFF2_ca    C     0.38637   0.42633  -0.25701   0.00000  Uiso   1.00
GAFF2_ca    C     0.41196   0.43438  -0.17939   0.00000  Uiso   1.00
GAFF2_ca    C     0.33031   0.41742  -0.29984   0.00000  Uiso   1.00
GAFF2_ca    C     0.43956   0.43553  -0.21072   0.00000  Uiso   1.00
GAFF2_ca    C     0.37114   0.41886  -0.29380   0.00000  Uiso   1.00
GAFF2_ca    C     0.30444   0.43065  -0.16616   0.00000  Uiso   1.00
GAFF2_ca    C     0.34383   0.43323  -0.15581   0.00000  Uiso   1.00
GAFF2_ca    C     0.35590   0.43668  -0.11614   0.00000  Uiso   1.00
GAFF2_ca    C     0.27771   0.43122  -0.13684   0.00000  Uiso   1.00
GAFF2_ca    C     0.28576   0.43122  -0.09832   0.00000  Uiso   1.00
GAFF2_ca    C     0.32600   0.43754  -0.08826   0.00000  Uiso   1.00
GAFF2_ca    C     0.29237   0.42748  -0.20526   0.00000  Uiso   1.00
GAFF2_ha    H     0.26304   0.42863  -0.07676   0.00000  Uiso   1.00
GAFF2_ca    C     0.39787   0.41311  -0.32255   0.00000  Uiso   1.00
GAFF2_ca    C     0.43869   0.41397  -0.31652   0.00000  Uiso   1.00
GAFF2_nb    N     0.30674   0.42288  -0.27109   0.00000  Uiso   1.00
GAFF2_ca    C     0.42720   0.42777  -0.24925   0.00000  Uiso   1.00
GAFF2_ca    C     0.45364   0.42173  -0.27943   0.00000  Uiso   1.00
GAFF2_ca    C     0.31910   0.42576  -0.23315   0.00000  Uiso   1.00
GAFF2_c3    C     0.39270   0.40880  -0.36539   0.00000  Uiso   1.00
GAFF2_c3    C     0.43295   0.40190  -0.38436   0.00000  Uiso   1.00
GAFF2_c3    C     0.43726   0.36165  -0.40247   0.00000  Uiso   1.00
GAFF2_hc    H     0.42030   0.35993  -0.42892   0.00000  Uiso   1.00
GAFF2_hc    H     0.46744   0.35590  -0.41052   0.00000  Uiso   1.00
GAFF2_hc    H     0.43783   0.42116  -0.40908   0.00000  Uiso   1.00
GAFF2_hc    H     0.37114   0.38752  -0.37401   0.00000  Uiso   1.00
GAFF2_hc    H     0.38292   0.43783  -0.37315   0.00000  Uiso   1.00
GAFF2_h4    H     0.31680   0.41167  -0.32744   0.00000  Uiso   1.00
GAFF2_ha    H     0.26189   0.42116  -0.20929   0.00000  Uiso   1.00
GAFF2_ha    H     0.24781   0.43065  -0.14633   0.00000  Uiso   1.00
GAFF2_ha    H     0.48412   0.41742  -0.27397   0.00000  Uiso   1.00
GAFF2_c3    C     0.33491   0.44818  -0.04427   0.00000  Uiso   1.00
GAFF2_c3    C     0.29955   0.44588  -0.01725   0.00000  Uiso   1.00
GAFF2_c3    C     0.30617   0.45882   0.02329   0.00000  Uiso   1.00
GAFF2_hc    H     0.32687   0.48268   0.02472   0.00000  Uiso   1.00
GAFF2_hc    H     0.27943   0.47003   0.03651   0.00000  Uiso   1.00
GAFF2_hc    H     0.27943   0.46687  -0.02961   0.00000  Uiso   1.00
GAFF2_hc    H     0.28662   0.41713  -0.01754   0.00000  Uiso   1.00
GAFF2_hc    H     0.35705   0.42806  -0.03421   0.00000  Uiso   1.00
GAFF2_os    O     0.42260   0.33233  -0.37660   0.00000  Uiso   1.00
GAFF2_c3    C     0.45422   0.31192  -0.35791   0.00000  Uiso   1.00
GAFF2_c3    C     0.43467   0.29265  -0.32313   0.00000  Uiso   1.00
GAFF2_c3    C     0.40908   0.31968  -0.29495   0.00000  Uiso   1.00
GAFF2_c3    C     0.36539   0.31450  -0.30444   0.00000  Uiso   1.00
GAFF2_hc    H     0.35906   0.28892  -0.32169   0.00000  Uiso   1.00
GAFF2_hc    H     0.35734   0.33894  -0.32313   0.00000  Uiso   1.00
GAFF2_hc    H     0.41828   0.34929  -0.30070   0.00000  Uiso   1.00
GAFF2_hc    H     0.41598   0.26966  -0.33376   0.00000  Uiso   1.00
GAFF2_hc    H     0.45364   0.27512  -0.30473   0.00000  Uiso   1.00
GAFF2_hc    H     0.46687   0.28863  -0.37516   0.00000  Uiso   1.00
GAFF2_hc    H     0.47722   0.33146  -0.34929   0.00000  Uiso   1.00
GAFF2_ca    C     0.33405   0.32687  -0.12247   0.00000  Uiso   1.00
GAFF2_ca    C     0.30732   0.32974  -0.15323   0.00000  Uiso   1.00
GAFF2_ca    C     0.37315   0.32227  -0.13080   0.00000  Uiso   1.00
GAFF2_ca    C     0.27886   0.30904  -0.00805   0.00000  Uiso   1.00
GAFF2_ca    C     0.26534   0.30588   0.02961   0.00000  Uiso   1.00
GAFF2_ca    C     0.23113   0.32715   0.03910   0.00000  Uiso   1.00
GAFF2_ca    C     0.31910   0.32514  -0.19261   0.00000  Uiso   1.00
GAFF2_ca    C     0.38522   0.31997  -0.17019   0.00000  Uiso   1.00
GAFF2_ca    C     0.35964   0.32054  -0.19980   0.00000  Uiso   1.00
GAFF2_ca    C     0.26822   0.34210  -0.14575   0.00000  Uiso   1.00
GAFF2_ca    C     0.29179   0.32687  -0.22337   0.00000  Uiso   1.00
GAFF2_ca    C     0.30617   0.32169  -0.26046   0.00000  Uiso   1.00
GAFF2_ca    C     0.34728   0.32083  -0.26592   0.00000  Uiso   1.00
GAFF2_ca    C     0.37401   0.31910  -0.23688   0.00000  Uiso   1.00
GAFF2_hc    H     0.34613   0.35590  -0.02990   0.00000  Uiso   1.00
GAFF2_ca    C     0.25643   0.34325  -0.10666   0.00000  Uiso   1.00
GAFF2_ca    C     0.28029   0.33290  -0.07474   0.00000  Uiso   1.00
GAFF2_ca    C     0.25356   0.34239  -0.21561   0.00000  Uiso   1.00
GAFF2_ca    C     0.24148   0.34498  -0.17709   0.00000  Uiso   1.00
GAFF2_ca    C     0.21791   0.35763  -0.09918   0.00000  Uiso   1.00
GAFF2_ca    C     0.19261   0.36338  -0.13080   0.00000  Uiso   1.00
GAFF2_ca    C     0.20382   0.35360  -0.16731   0.00000  Uiso   1.00
GAFF2_ca    C     0.26333   0.33233  -0.03708   0.00000  Uiso   1.00
GAFF2_ca    C     0.22625   0.34986  -0.02760   0.00000  Uiso   1.00
GAFF2_ca    C     0.20469   0.36136  -0.06066   0.00000  Uiso   1.00
GAFF2_c3    C     0.15121   0.37660  -0.12419   0.00000  Uiso   1.00
GAFF2_hc    H     0.13195   0.35188  -0.11902   0.00000  Uiso   1.00
GAFF2_hc    H     0.14058   0.39270  -0.14920   0.00000  Uiso   1.00
GAFF2_ca    C     0.32083   0.32859  -0.08308   0.00000  Uiso   1.00
GAFF2_ha    H     0.18197   0.35475  -0.18945   0.00000  Uiso   1.00
GAFF2_ha    H     0.41512   0.31479  -0.17824   0.00000  Uiso   1.00
GAFF2_ha    H     0.28748   0.31997  -0.28547   0.00000  Uiso   1.00
GAFF2_c3    C     0.22682   0.35676  -0.24781   0.00000  Uiso   1.00
GAFF2_c3    C     0.19779   0.32801  -0.26649   0.00000  Uiso   1.00
GAFF2_hc    H     0.21187   0.29984  -0.26994   0.00000  Uiso   1.00
GAFF2_hc    H     0.24235   0.37056  -0.27167   0.00000  Uiso   1.00
GAFF2_c3    C     0.14748   0.40448  -0.09113   0.00000  Uiso   1.00
GAFF2_os    O     0.10838   0.41368  -0.08998   0.00000  Uiso   1.00
GAFF2_c3    C     0.09314   0.44473  -0.07015   0.00000  Uiso   1.00
GAFF2_c3    C     0.05060   0.44818  -0.08596   0.00000  Uiso   1.00
GAFF2_c3    C     0.02329   0.47291  -0.06037   0.00000  Uiso   1.00
GAFF2_hc    H     0.03105   0.50367  -0.06181   0.00000  Uiso   1.00
GAFF2_hc    H     0.02329   0.46687  -0.02932   0.00000  Uiso   1.00
GAFF2_hc    H     0.05146   0.45882  -0.11557   0.00000  Uiso   1.00
GAFF2_hc    H     0.03708   0.41943  -0.08653   0.00000  Uiso   1.00
GAFF2_hc    H     0.10809   0.47204  -0.07561   0.00000  Uiso   1.00
GAFF2_hc    H     0.08826   0.43984  -0.03910   0.00000  Uiso   1.00
GAFF2_ca    C     0.12275   0.34066   0.16214   0.00000  Uiso   1.00
GAFF2_ca    C     0.10292   0.31450   0.13742   0.00000  Uiso   1.00
GAFF2_ca    C     0.05606   0.25931   0.13052   0.00000  Uiso   1.00
GAFF2_ca    C     0.03191   0.23458   0.15294   0.00000  Uiso   1.00
GAFF2_ca    C     0.07302   0.28921   0.15150   0.00000  Uiso   1.00
GAFF2_ca    C     0.06382   0.28777   0.18916   0.00000  Uiso   1.00
GAFF2_ss    S     0.03450   0.24781   0.20181   0.00000  Uiso   1.00
GAFF2_ca    C     0.06095   0.25413   0.09113   0.00000  Uiso   1.00
GAFF2_ca    C     0.04398   0.22193   0.07216   0.00000  Uiso   1.00
GAFF2_c3    C     0.04628   0.22050   0.02760   0.00000  Uiso   1.00
GAFF2_hc    H     0.04456   0.19089   0.01667   0.00000  Uiso   1.00
GAFF2_hc    H     0.07503   0.22883   0.01754   0.00000  Uiso   1.00
GAFF2_c3    C     0.01840   0.24551   0.00489   0.00000  Uiso   1.00
GAFF2_c3    C    -0.02789   0.31767  -0.00977   0.00000  Uiso   1.00
GAFF2_c3    C    -0.05117   0.34066  -0.04197   0.00000  Uiso   1.00
GAFF2_c3    C    -0.24263   0.41023  -0.13282   0.00000  Uiso   1.00
GAFF2_c3    C    -0.20382   0.40103  -0.15236   0.00000  Uiso   1.00
GAFF2_ca    C    -0.06785   0.52494  -0.17278   0.00000  Uiso   1.00
GAFF2_ca    C    -0.02961   0.53241  -0.15754   0.00000  Uiso   1.00
GAFF2_ca    C    -0.03536   0.48670  -0.10407   0.00000  Uiso   1.00
GAFF2_ca    C    -0.01581   0.51401  -0.12304   0.00000  Uiso   1.00
GAFF2_ca    C    -0.01782   0.46486  -0.07388   0.00000  Uiso   1.00
GAFF2_ca    C    -0.08739   0.54449  -0.20497   0.00000  Uiso   1.00
GAFF2_ca    C    -0.12505   0.52983  -0.21159   0.00000  Uiso   1.00
GAFF2_ca    C    -0.14403   0.50395  -0.19117   0.00000  Uiso   1.00
GAFF2_ca    C    -0.17939   0.49475  -0.20670   0.00000  Uiso   1.00
GAFF2_c2    C    -0.14834   0.53845  -0.24235   0.00000  Uiso   1.00
GAFF2_na    N    -0.18169   0.51258  -0.24177   0.00000  Uiso   1.00
GAFF2_c3    C    -0.13684   0.56404  -0.27771   0.00000  Uiso   1.00
GAFF2_c3    C    -0.10809   0.59508  -0.25931   0.00000  Uiso   1.00
GAFF2_c3    C    -0.09171   0.62096  -0.29036   0.00000  Uiso   1.00
GAFF2_c3    C    -0.07446   0.66034  -0.27684   0.00000  Uiso   1.00
GAFF2_hc    H    -0.09372   0.67587  -0.25729   0.00000  Uiso   1.00
GAFF2_hc    H    -0.06583   0.67702  -0.30243   0.00000  Uiso   1.00
GAFF2_hc    H    -0.11384   0.62556  -0.31249   0.00000  Uiso   1.00
GAFF2_hc    H    -0.16070   0.57611  -0.29467   0.00000  Uiso   1.00
GAFF2_hc    H    -0.12103   0.54736  -0.29927   0.00000  Uiso   1.00
GAFF2_hn    H    -0.19232   0.50367  -0.26707   0.00000  Uiso   1.00
GAFF2_ha    H     0.01236   0.52264  -0.11240   0.00000  Uiso   1.00
GAFF2_ca    C    -0.18312   0.44099  -0.16214   0.00000  Uiso   1.00
GAFF2_hc    H    -0.06871   0.60313  -0.30243   0.00000  Uiso   1.00
GAFF2_hc    H    -0.12563   0.61118  -0.23861   0.00000  Uiso   1.00
GAFF2_hc    H    -0.20900   0.38120  -0.17680   0.00000  Uiso   1.00
GAFF2_hc    H    -0.18744   0.38292  -0.13224   0.00000  Uiso   1.00
GAFF2_hc    H    -0.26247   0.41972  -0.15553   0.00000  Uiso   1.00
GAFF2_hc    H    -0.23775   0.43122  -0.10953   0.00000  Uiso   1.00
GAFF2_hc    H    -0.07733   0.32658  -0.05232   0.00000  Uiso   1.00
GAFF2_hc    H     0.31422   0.43438   0.04168   0.00000  Uiso   1.00
GAFF2_ca    C     0.01811   0.20037   0.13569   0.00000  Uiso   1.00
GAFF2_ca    C     0.02214   0.19491   0.09458   0.00000  Uiso   1.00
GAFF2_ca    C     0.50712   0.37689   0.06238   0.00000  Uiso   1.00
GAFF2_ca    C     0.08452   0.31163   0.21590   0.00000  Uiso   1.00
GAFF2_ca    C     0.10896   0.34124   0.20037   0.00000  Uiso   1.00
GAFF2_ha    H     0.12304   0.36280   0.21820   0.00000  Uiso   1.00
GAFF2_ha    H     0.08193   0.30530   0.24637   0.00000  Uiso   1.00
GAFF2_ha    H     0.56375   0.35446   0.07906   0.00000  Uiso   1.00
GAFF2_ca    C    -0.12879   0.48670  -0.15840   0.00000  Uiso   1.00
GAFF2_ca    C    -0.09027   0.49792  -0.14891   0.00000  Uiso   1.00
GAFF2_ca    C    -0.07216   0.47693  -0.11758   0.00000  Uiso   1.00
GAFF2_ca    C    -0.09314   0.44761  -0.10004   0.00000  Uiso   1.00
GAFF2_ca    C    -0.03852   0.43611  -0.05635   0.00000  Uiso   1.00
GAFF2_ca    C    -0.07388   0.42777  -0.06871   0.00000  Uiso   1.00
GAFF2_ca    C    -0.12822   0.43410  -0.11240   0.00000  Uiso   1.00
GAFF2_ca    C    -0.14748   0.45393  -0.14317   0.00000  Uiso   1.00
GAFF2_ha    H    -0.14000   0.40851  -0.09861   0.00000  Uiso   1.00
GAFF2_c3    C     0.00230   0.56087  -0.17651   0.00000  Uiso   1.00
GAFF2_c3    C    -0.00201   0.60313  -0.16616   0.00000  Uiso   1.00
GAFF2_c3    C     0.02271   0.63303  -0.19002   0.00000  Uiso   1.00
GAFF2_hc    H     0.05261   0.62354  -0.19290   0.00000  Uiso   1.00
GAFF2_hc    H     0.00949   0.63332  -0.21877   0.00000  Uiso   1.00
GAFF2_hc    H     0.02472   0.66207  -0.17709   0.00000  Uiso   1.00
GAFF2_hc    H    -0.03220   0.61233  -0.16645   0.00000  Uiso   1.00
GAFF2_hc    H    -0.00029   0.55541  -0.20756   0.00000  Uiso   1.00
GAFF2_hc    H     0.05088  -0.00949   0.20842   0.00000  Uiso   1.00
GAFF2_ha    H     0.14288   0.36165   0.15064   0.00000  Uiso   1.00
GAFF2_hc    H     0.35044   0.30559  -0.03335   0.00000  Uiso   1.00
GAFF2_os    O     0.17565   0.36194   0.01897   0.00000  Uiso   1.00
GAFF2_c3    C     0.14460   0.33520   0.02587   0.00000  Uiso   1.00
GAFF2_c3    C     0.13627   0.33779   0.07302   0.00000  Uiso   1.00
GAFF2_c3    C     0.11988   0.30300   0.09516   0.00000  Uiso   1.00
GAFF2_hc    H     0.14087   0.28029   0.10177   0.00000  Uiso   1.00
GAFF2_hc    H     0.11643   0.36223   0.07676   0.00000  Uiso   1.00
GAFF2_hc    H     0.15811   0.35159   0.09113   0.00000  Uiso   1.00
GAFF2_hc    H     0.12017   0.33750   0.00604   0.00000  Uiso   1.00
GAFF2_hc    H     0.15380   0.30559   0.02070   0.00000  Uiso   1.00
GAFF2_hc    H     0.09372   0.00460   0.18542   0.00000  Uiso   1.00
GAFF2_hc    H     0.13023   0.05318   0.19549   0.00000  Uiso   1.00
GAFF2_ca    C     0.45393   0.23717   0.25212   0.00000  Uiso   1.00
GAFF2_ha    H     0.47865   0.22337   0.26506   0.00000  Uiso   1.00
GAFF2_hc    H     0.49849   0.28346   0.31019   0.00000  Uiso   1.00
GAFF2_hc    H     0.11355   0.01610   0.13339   0.00000  Uiso   1.00
GAFF2_hc    H    -0.03249   0.34670  -0.06670   0.00000  Uiso   1.00
GAFF2_hc    H     0.17163   0.32198  -0.24982   0.00000  Uiso   1.00
GAFF2_hc    H     0.20756   0.37976  -0.23746   0.00000  Uiso   1.00
GAFF2_hc    H     0.16645   0.42835  -0.09947   0.00000  Uiso   1.00
GAFF2_hc    H     0.58445   0.55800  -0.18054   0.00000  Uiso   1.00
GAFF2_hc    H     0.00345   0.60975  -0.13569   0.00000  Uiso   1.00
GAFF2_hc    H     0.03191   0.55455  -0.16789   0.00000  Uiso   1.00
GAFF2_c3    C    -0.00029   0.16875   0.15984   0.00000  Uiso   1.00
GAFF2_c3    C    -0.00172   0.12937   0.13885   0.00000  Uiso   1.00
GAFF2_c3    C    -0.02099   0.13397   0.09947   0.00000  Uiso   1.00
GAFF2_c3    C     0.00517   0.15984   0.07273   0.00000  Uiso   1.00
GAFF2_hc    H     0.01236   0.16415   0.18859   0.00000  Uiso   1.00
GAFF2_hc    H    -0.03076   0.17594   0.16559   0.00000  Uiso   1.00
GAFF2_hc    H     0.02817   0.12017   0.13454   0.00000  Uiso   1.00
GAFF2_hc    H    -0.05031   0.14604   0.10033   0.00000  Uiso   1.00
GAFF2_hc    H     0.02817   0.14058   0.06296   0.00000  Uiso   1.00
GAFF2_hc    H    -0.00661   0.16645   0.04427   0.00000  Uiso   1.00
GAFF2_c3    C    -0.02070   0.24925   0.02300   0.00000  Uiso   1.00
GAFF2_c3    C     0.01495   0.31048  -0.02041   0.00000  Uiso   1.00
GAFF2_c3    C    -0.04916   0.27771   0.00086   0.00000  Uiso   1.00
GAFF2_hc    H    -0.02875   0.33319   0.01782   0.00000  Uiso   1.00
GAFF2_hc    H    -0.02099   0.25988   0.05261   0.00000  Uiso   1.00
GAFF2_hc    H    -0.03306   0.22021   0.02674   0.00000  Uiso   1.00
GAFF2_hc    H     0.02961   0.33865  -0.02012   0.00000  Uiso   1.00
GAFF2_hc    H     0.01639   0.30099  -0.05060   0.00000  Uiso   1.00
GAFF2_hc    H    -0.07618   0.28518   0.01552   0.00000  Uiso   1.00
GAFF2_hc    H    -0.05635   0.26276  -0.02587   0.00000  Uiso   1.00
GAFF2_hc    H     0.01581   0.23430  -0.02444   0.00000  Uiso   1.00
GAFF2_c3    C    -0.02760   0.09602   0.15696   0.00000  Uiso   1.00
GAFF2_c3    C    -0.02932   0.09343   0.08596   0.00000  Uiso   1.00
GAFF2_c3    C    -0.04283   0.07130   0.12505   0.00000  Uiso   1.00
GAFF2_hc    H    -0.01121   0.07963   0.17853   0.00000  Uiso   1.00
GAFF2_hc    H    -0.05318   0.10809   0.17105   0.00000  Uiso   1.00
GAFF2_hc    H    -0.00057   0.08423   0.07618   0.00000  Uiso   1.00
GAFF2_hc    H    -0.04485   0.09717   0.05865   0.00000  Uiso   1.00
GAFF2_hc    H    -0.07446   0.07043   0.12419   0.00000  Uiso   1.00
GAFF2_o     O    -0.01926   0.00431   0.18887   0.00000  Uiso   1.00
GAFF2_hc    H     0.04025   0.05031   0.10033   0.00000  Uiso   1.00
GAFF2_hc    H     0.06411   0.07072   0.13684   0.00000  Uiso   1.00
GAFF2_ca    C    -0.19807   0.46169  -0.19462   0.00000  Uiso   1.00
GAFF2_ha    H    -0.22452   0.45106  -0.20814   0.00000  Uiso   1.00
GAFF2_os    O    -0.09228   0.39874  -0.04916   0.00000  Uiso   1.00
GAFF2_c3    C     0.56749   0.34929   0.00287   0.00000  Uiso   1.00
GAFF2_hc    H     0.55282   0.32600   0.01869   0.00000  Uiso   1.00
GAFF2_hc    H     0.59623   0.34986   0.01581   0.00000  Uiso   1.00
GAFF2_c3    C     0.42605   0.53184  -0.00920   0.00000  Uiso   1.00
GAFF2_hc    H     0.41426   0.52666  -0.03795   0.00000  Uiso   1.00
GAFF2_hc    H     0.44186   0.55915  -0.00977   0.00000  Uiso   1.00
GAFF2_hc    H     0.40305   0.53903   0.01121   0.00000  Uiso   1.00
GAFF2_c3    C    -0.06296   0.38235  -0.02444   0.00000  Uiso   1.00
GAFF2_hc    H    -0.07359   0.37631   0.00460   0.00000  Uiso   1.00
GAFF2_os    O     0.03421   0.28461   0.00517   0.00000  Uiso   1.00
GAFF2_hc    H    -0.04945   0.65775  -0.25787   0.00000  Uiso   1.00
GAFF2_c3    C     0.39155   0.34153  -0.06382   0.00000  Uiso   1.00
GAFF2_c3    C     0.42518   0.34124  -0.03450   0.00000  Uiso   1.00
GAFF2_c3    C     0.40190   0.31479  -0.09774   0.00000  Uiso   1.00
GAFF2_c3    C     0.44617   0.31450  -0.10292   0.00000  Uiso   1.00
GAFF2_c3    C     0.45853   0.32284  -0.05980   0.00000  Uiso   1.00
GAFF2_hc    H     0.38954   0.37142  -0.07388   0.00000  Uiso   1.00
GAFF2_hc    H     0.42921   0.36941  -0.02099   0.00000  Uiso   1.00
GAFF2_hc    H     0.41771   0.32198  -0.01064   0.00000  Uiso   1.00
GAFF2_hc    H     0.39529   0.28633  -0.08567   0.00000  Uiso   1.00
GAFF2_hc    H     0.45336   0.33808  -0.12275   0.00000  Uiso   1.00
GAFF2_hc    H     0.45824   0.28662  -0.11212   0.00000  Uiso   1.00
GAFF2_hc    H     0.46198   0.29380  -0.04715   0.00000  Uiso   1.00
GAFF2_c3    C     0.44559   0.16128   0.29409   0.00000  Uiso   1.00
GAFF2_hc    H     0.43783   0.13138   0.30013   0.00000  Uiso   1.00
GAFF2_hc    H     0.45307   0.18054   0.31795   0.00000  Uiso   1.00
GAFF2_hc    H     0.47176   0.16300   0.27656   0.00000  Uiso   1.00
GAFF2_os    O     0.56835   0.34038  -0.03823   0.00000  Uiso   1.00
GAFF2_c3    C     0.53443   0.31968  -0.05347   0.00000  Uiso   1.00
GAFF2_c3    C     0.49705   0.34555  -0.05405   0.00000  Uiso   1.00
GAFF2_hc    H     0.54018   0.31105  -0.08337   0.00000  Uiso   1.00
GAFF2_hc    H     0.52781   0.29237  -0.03881   0.00000  Uiso   1.00
GAFF2_hc    H     0.49504   0.36108  -0.02674   0.00000  Uiso   1.00
GAFF2_hc    H     0.50108   0.36682  -0.07704   0.00000  Uiso   1.00
GAFF2_hc    H     0.18974   0.34009  -0.29467   0.00000  Uiso   1.00
GAFF2_c3    C     0.16444   0.38321  -0.05491   0.00000  Uiso   1.00
GAFF2_hc    H     0.17191   0.40650  -0.03479   0.00000  Uiso   1.00
GAFF2_hc    H     0.14259   0.36223  -0.04628   0.00000  Uiso   1.00
GAFF2_c3    C     0.40017   0.44847  -0.10953   0.00000  Uiso   1.00
GAFF2_hc    H     0.40247   0.47980  -0.11355   0.00000  Uiso   1.00
GAFF2_hc    H     0.41167   0.44588  -0.08021   0.00000  Uiso   1.00
GAFF2_c3    C     0.48124   0.45163  -0.20382   0.00000  Uiso   1.00
GAFF2_hc    H     0.50108   0.42835  -0.21159   0.00000  Uiso   1.00
GAFF2_c3    C     0.40132   0.40937   0.06756   0.00000  Uiso   1.00
GAFF2_hc    H     0.39442   0.43640   0.08279   0.00000  Uiso   1.00
GAFF2_hc    H     0.38264   0.41512   0.04255   0.00000  Uiso   1.00
GAFF2_hc    H    -0.25356   0.38436  -0.11844   0.00000  Uiso   1.00
GAFF2_c3    C     0.18945   0.11039   0.25126   0.00000  Uiso   1.00
GAFF2_hc    H     0.19261   0.07906   0.24838   0.00000  Uiso   1.00
GAFF2_hc    H     0.17364   0.11844   0.27742   0.00000  Uiso   1.00
GAFF2_c3    C     0.41311   0.31307  -0.25155   0.00000  Uiso   1.00
GAFF2_hc    H     0.43180   0.33520  -0.23890   0.00000  Uiso   1.00
GAFF2_hc    H     0.42518   0.28461  -0.24465   0.00000  Uiso   1.00
GAFF2_os    O     0.35993   0.29064   0.20152   0.00000  Uiso   1.00
GAFF2_c3    C     0.17881   0.25155   0.19117   0.00000  Uiso   1.00
GAFF2_hc    H     0.16990   0.24407   0.16156   0.00000  Uiso   1.00
GAFF2_hc    H     0.18140   0.28317   0.18887   0.00000  Uiso   1.00
GAFF2_hc    H     0.15495   0.24350   0.20986   0.00000  Uiso   1.00
GAFF2_c3    C     0.46342   0.40995  -0.35303   0.00000  Uiso   1.00
GAFF2_hc    H     0.48527   0.38695  -0.35331   0.00000  Uiso   1.00
GAFF2_hc    H     0.47923   0.43640  -0.36021   0.00000  Uiso   1.00
GAFF2_c3    C     0.08423   0.28719   0.07158   0.00000  Uiso   1.00
GAFF2_hc    H     0.09602   0.27828   0.04370   0.00000  Uiso   1.00
GAFF2_hc    H     0.06210   0.30875   0.06612   0.00000  Uiso   1.00
GAFF2_c3    C     0.49217   0.48814  -0.22855   0.00000  Uiso   1.00
GAFF2_c3    C     0.53241   0.50654  -0.22021   0.00000  Uiso   1.00
GAFF2_hc    H     0.47118   0.51056  -0.22136   0.00000  Uiso   1.00
GAFF2_hc    H     0.49102   0.48613  -0.25988   0.00000  Uiso   1.00
GAFF2_hc    H     0.53615   0.53385  -0.23545   0.00000  Uiso   1.00
GAFF2_hc    H     0.55196   0.48412  -0.23056   0.00000  Uiso   1.00
GAFF2_c3    C    -0.07532   0.57324  -0.23545   0.00000  Uiso   1.00
GAFF2_hc    H    -0.05577   0.59278  -0.21992   0.00000  Uiso   1.00
GAFF2_hc    H    -0.05721   0.55685  -0.25557   0.00000  Uiso   1.00
GAFF2_c3    C    -0.02731   0.40937  -0.02357   0.00000  Uiso   1.00
GAFF2_hc    H     0.00000   0.39356  -0.02674   0.00000  Uiso   1.00
GAFF2_hc    H    -0.02875   0.42633   0.00316   0.00000  Uiso   1.00
GAFF2_hc    H     0.34958   0.47578  -0.03938   0.00000  Uiso   1.00
GAFF2_oh    O     0.56576   0.27138   0.31163   0.00000  Uiso   1.00
GAFF2_o     O     0.57525   0.33434   0.31163   0.00000  Uiso   1.00
GAFF2_ho    H     0.59307   0.27713   0.31134   0.00000  Uiso   1.00
GAFF2_ca    C     0.45537   0.35360   0.10177   0.00000  Uiso   1.00
GAFF2_ha    H     0.53845   0.30645   0.11930   0.00000  Uiso   1.00
GAFF2_c3    C     0.35159   0.33233  -0.05031   0.00000  Uiso   1.00
GAFF2_ca    C     0.21187   0.35015   0.01150   0.00000  Uiso   1.00
GAFF2_ha    H     0.22021   0.32284   0.06813   0.00000  Uiso   1.00
GAFF2_ha    H     0.28173   0.28604   0.04715   0.00000  Uiso   1.00
GAFF2_ha    H     0.30157   0.28921  -0.01581   0.00000  Uiso   1.00
GAFF2_ca    C     0.53960   0.27914   0.62268   0.00000  Uiso   1.00
GAFF2_ca    C     0.55627   0.29036   0.65775   0.00000  Uiso   1.00
GAFF2_ca    C     0.59652   0.33750   0.62153   0.00000  Uiso   1.00
GAFF2_ca    C     0.58617   0.31824   0.65747   0.00000  Uiso   1.00
GAFF2_ca    C     0.60371   0.32888   0.69426   0.00000  Uiso   1.00
GAFF2_ca    C     0.62786   0.36654   0.62153   0.00000  Uiso   1.00
GAFF2_ca    C     0.54822   0.27368   0.69369   0.00000  Uiso   1.00
GAFF2_ca    C     0.56289   0.28461   0.72847   0.00000  Uiso   1.00
GAFF2_ca    C     0.64396   0.37545   0.65804   0.00000  Uiso   1.00
GAFF2_ca    C     0.63389   0.35648   0.69311   0.00000  Uiso   1.00
GAFF2_ca    C     0.59192   0.31307   0.72934   0.00000  Uiso   1.00
GAFF2_ca    C     0.60888   0.32830   0.76383   0.00000  Uiso   1.00
GAFF2_ca    C     0.65229   0.36654   0.72474   0.00000  Uiso   1.00
GAFF2_ca    C     0.63907   0.35734   0.76039   0.00000  Uiso   1.00
GAFF2_ca    C     0.55196   0.29524   0.58703   0.00000  Uiso   1.00
GAFF2_c2    C     0.54707   0.26132   0.75636   0.00000  Uiso   1.00
GAFF2_c2    C     0.52178   0.24666   0.70231   0.00000  Uiso   1.00
GAFF2_na    N     0.51976   0.23573   0.74256   0.00000  Uiso   1.00
GAFF2_hn    H     0.51804   0.20785   0.75032   0.00000  Uiso   1.00
GAFF2_ca    C     0.58014   0.32399   0.58646   0.00000  Uiso   1.00
GAFF2_ha    H     0.67587   0.38666   0.72100   0.00000  Uiso   1.00
GAFF2_ha    H     0.66868   0.39471   0.65948   0.00000  Uiso   1.00
GAFF2_ha    H     0.60083   0.31479   0.79086   0.00000  Uiso   1.00
GAFF2_ha    H     0.51804   0.25672   0.62009   0.00000  Uiso   1.00
GAFF2_h4    H     0.55167   0.26161   0.78712   0.00000  Uiso   1.00
GAFF2_h4    H     0.51229   0.22510   0.68190   0.00000  Uiso   1.00
GAFF2_ha    H     0.53443   0.28461   0.56346   0.00000  Uiso   1.00
GAFF2_c3    C     0.59250   0.34181   0.54736   0.00000  Uiso   1.00
GAFF2_c3    C     0.63303   0.36424   0.54966   0.00000  Uiso   1.00
GAFF2_c3    C     0.63878   0.39011   0.58560   0.00000  Uiso   1.00
GAFF2_c3    C     0.65373   0.37574   0.79833   0.00000  Uiso   1.00
GAFF2_c3    C     0.66695   0.42001   0.79373   0.00000  Uiso   1.00
GAFF2_c3    C     0.64166   0.44617   0.76872   0.00000  Uiso   1.00
GAFF2_hc    H     0.67385   0.43151   0.82248   0.00000  Uiso   1.00
GAFF2_hc    H     0.67558   0.35763   0.81184   0.00000  Uiso   1.00
GAFF2_hc    H     0.63131   0.37861   0.82047   0.00000  Uiso   1.00
GAFF2_hc    H     0.61866   0.41455   0.58761   0.00000  Uiso   1.00
GAFF2_hc    H     0.65689   0.34354   0.54966   0.00000  Uiso   1.00
GAFF2_hc    H     0.63504   0.37775   0.52091   0.00000  Uiso   1.00
GAFF2_hc    H     0.56921   0.36136   0.53931   0.00000  Uiso   1.00
GAFF2_hc    H     0.59192   0.32025   0.52436   0.00000  Uiso   1.00
GAFF2_ca    C     0.77505   0.61550   0.50597   0.00000  Uiso   1.00
GAFF2_ca    C     0.78195   0.58014   0.49044   0.00000  Uiso   1.00
GAFF2_ca    C     0.79920   0.57554   0.45307   0.00000  Uiso   1.00
GAFF2_ca    C     0.76958   0.54822   0.51171   0.00000  Uiso   1.00
GAFF2_ca    C     0.75090   0.55052   0.54765   0.00000  Uiso   1.00
GAFF2_ca    C     0.74199   0.58675   0.56231   0.00000  Uiso   1.00
GAFF2_ca    C     0.75205   0.61923   0.54046   0.00000  Uiso   1.00
GAFF2_ca    C     0.80379   0.53816   0.43640   0.00000  Uiso   1.00
GAFF2_ca    C     0.77303   0.51143   0.49360   0.00000  Uiso   1.00
GAFF2_ca    C     0.79172   0.50654   0.45681   0.00000  Uiso   1.00
GAFF2_ca    C     0.78223   0.43927   0.46141   0.00000  Uiso   1.00
GAFF2_ca    C     0.76182   0.47693   0.51373   0.00000  Uiso   1.00
GAFF2_ca    C     0.81041   0.60773   0.43410   0.00000  Uiso   1.00
GAFF2_ca    C     0.81903   0.53529   0.39787   0.00000  Uiso   1.00
GAFF2_ca    C     0.82564   0.49907   0.38264   0.00000  Uiso   1.00
GAFF2_ca    C     0.81041   0.46572   0.40161   0.00000  Uiso   1.00
GAFF2_ca    C     0.79402   0.47032   0.43984   0.00000  Uiso   1.00
GAFF2_h4    H     0.78885   0.40880   0.45652   0.00000  Uiso   1.00
GAFF2_ca    C     0.73681   0.51689   0.56634   0.00000  Uiso   1.00
GAFF2_ca    C     0.74457   0.47980   0.55081   0.00000  Uiso   1.00
GAFF2_ca    C     0.80408   0.64511   0.45048   0.00000  Uiso   1.00
GAFF2_nb    N     0.76843   0.44358   0.49705   0.00000  Uiso   1.00
GAFF2_ca    C     0.78511   0.64884   0.48469   0.00000  Uiso   1.00
GAFF2_ha    H     0.77965   0.67730   0.49648   0.00000  Uiso   1.00
GAFF2_c3    C     0.73624   0.44358   0.57237   0.00000  Uiso   1.00
GAFF2_c3    C     0.69541   0.42835   0.56317   0.00000  Uiso   1.00
GAFF2_hc    H     0.69685   0.41598   0.53414   0.00000  Uiso   1.00
GAFF2_hc    H     0.67529   0.45278   0.56174   0.00000  Uiso   1.00
GAFF2_hc    H     0.75751   0.42116   0.56605   0.00000  Uiso   1.00
GAFF2_hc    H     0.74112   0.44703   0.60342   0.00000  Uiso   1.00
GAFF2_os    O     0.67989   0.40103   0.58905   0.00000  Uiso   1.00
GAFF2_ca    C     0.82909   0.57151   0.37919   0.00000  Uiso   1.00
GAFF2_ca    C     0.85295   0.56921   0.34584   0.00000  Uiso   1.00
GAFF2_ca    C     0.86445   0.53328   0.33233   0.00000  Uiso   1.00
GAFF2_c3    C     0.88860   0.53414   0.29610   0.00000  Uiso   1.00
GAFF2_c3    C     0.93201   0.53126   0.30358   0.00000  Uiso   1.00
GAFF2_c3    C     0.94667   0.49044   0.31910   0.00000  Uiso   1.00
GAFF2_c     C     0.94897   0.46227   0.28547   0.00000  Uiso   1.00
GAFF2_hc    H     0.97628   0.49360   0.33003   0.00000  Uiso   1.00
GAFF2_hc    H     0.94840   0.53816   0.27742   0.00000  Uiso   1.00
GAFF2_hc    H     0.94150   0.55340   0.32399   0.00000  Uiso   1.00
GAFF2_hc    H     0.88659   0.56059   0.27914   0.00000  Uiso   1.00
GAFF2_hc    H     0.87681   0.51229   0.27684   0.00000  Uiso   1.00
GAFF2_ha    H     0.86273   0.59652   0.33376   0.00000  Uiso   1.00
GAFF2_c3    C     0.81644   0.68219   0.42806   0.00000  Uiso   1.00
GAFF2_c3    C     0.85928   0.68219   0.41656   0.00000  Uiso   1.00
GAFF2_c3    C     0.86560   0.69254   0.37315   0.00000  Uiso   1.00
GAFF2_os    O     0.85295   0.73106   0.36682   0.00000  Uiso   1.00
GAFF2_c3    C     0.85180   0.74429   0.32687   0.00000  Uiso   1.00
GAFF2_c3    C     0.85468   0.78655   0.32514   0.00000  Uiso   1.00
GAFF2_ca    C     0.82679   0.78396   0.25557   0.00000  Uiso   1.00
GAFF2_hc    H     0.88113   0.79460   0.34066   0.00000  Uiso   1.00
GAFF2_hc    H     0.83312   0.79776   0.34555   0.00000  Uiso   1.00
GAFF2_hc    H     0.87566   0.73221   0.31048   0.00000  Uiso   1.00
GAFF2_hc    H     0.85180   0.66897   0.35676   0.00000  Uiso   1.00
GAFF2_hc    H     0.89579   0.69139   0.36395   0.00000  Uiso   1.00
GAFF2_hc    H     0.87451   0.70346   0.43467   0.00000  Uiso   1.00
GAFF2_hc    H     0.87451   0.65517   0.42202   0.00000  Uiso   1.00
GAFF2_hc    H     0.81271   0.70720   0.44703   0.00000  Uiso   1.00
GAFF2_hc    H     0.80006   0.68650   0.40132   0.00000  Uiso   1.00
GAFF2_c3    C     0.72273   0.59106   0.60141   0.00000  Uiso   1.00
GAFF2_c3    C     0.71525   0.55254   0.62354   0.00000  Uiso   1.00
GAFF2_c3    C     0.75061   0.54449   0.64798   0.00000  Uiso   1.00
GAFF2_hc    H     0.75981   0.56979   0.66465   0.00000  Uiso   1.00
GAFF2_hc    H     0.77648   0.54046   0.63044   0.00000  Uiso   1.00
GAFF2_hc    H     0.69254   0.56145   0.64367   0.00000  Uiso   1.00
GAFF2_hc    H     0.69426   0.60428   0.59710   0.00000  Uiso   1.00
GAFF2_hc    H     0.73652   0.61090   0.62211   0.00000  Uiso   1.00
GAFF2_c3    C     0.69340   0.47348   0.72503   0.00000  Uiso   1.00
GAFF2_c3    C     0.74946   0.50827   0.67414   0.00000  Uiso   1.00
GAFF2_ss    S     0.72043   0.51919   0.71813   0.00000  Uiso   1.00
GAFF2_hc    H     0.77993   0.50280   0.68133   0.00000  Uiso   1.00
GAFF2_c3    C     0.66034   0.48182   0.75291   0.00000  Uiso   1.00
GAFF2_c     C     0.62872   0.50683   0.73250   0.00000  Uiso   1.00
GAFF2_c3    C     0.61090   0.49332   0.69513   0.00000  Uiso   1.00
GAFF2_hc    H     0.60285   0.46284   0.69829   0.00000  Uiso   1.00
GAFF2_hc    H     0.63246   0.49217   0.67213   0.00000  Uiso   1.00
GAFF2_hc    H     0.67069   0.50022   0.77648   0.00000  Uiso   1.00
GAFF2_ca    C     0.70174   0.72704   0.20124   0.00000  Uiso   1.00
GAFF2_ca    C     0.76556   0.76067   0.20871   0.00000  Uiso   1.00
GAFF2_ca    C     0.73106   0.75377   0.18686   0.00000  Uiso   1.00
GAFF2_ca    C     0.72646   0.76671   0.14776   0.00000  Uiso   1.00
GAFF2_ca    C     0.79431   0.78597   0.19290   0.00000  Uiso   1.00
GAFF2_ca    C     0.66552   0.72646   0.18054   0.00000  Uiso   1.00
GAFF2_ca    C     0.66207   0.74572   0.14661   0.00000  Uiso   1.00
GAFF2_ca    C     0.79230   0.79345   0.15236   0.00000  Uiso   1.00
GAFF2_ca    C     0.75809   0.78741   0.13167   0.00000  Uiso   1.00
GAFF2_ca    C     0.69110   0.76470   0.12850   0.00000  Uiso   1.00
GAFF2_ca    C     0.74342   0.71525   0.25758   0.00000  Uiso   1.00
GAFF2_c2    C     0.62642   0.73854   0.13023   0.00000  Uiso   1.00
GAFF2_c2    C     0.62929   0.70691   0.18657   0.00000  Uiso   1.00
GAFF2_na    N     0.60256   0.71726   0.15783   0.00000  Uiso   1.00
GAFF2_hn    H     0.58675   0.69541   0.14690   0.00000  Uiso   1.00
GAFF2_ca    C     0.76901   0.74285   0.24407   0.00000  Uiso   1.00
GAFF2_ca    C     0.80552   0.75032   0.26592   0.00000  Uiso   1.00
GAFF2_ca    C     0.86992   0.83944   0.27196   0.00000  Uiso   1.00
GAFF2_ca    C     0.86762   0.85497   0.23545   0.00000  Uiso   1.00
GAFF2_ca    C     0.84548   0.83341   0.20871   0.00000  Uiso   1.00
GAFF2_ca    C     0.70950   0.70691   0.23602   0.00000  Uiso   1.00
GAFF2_ha    H     0.75607   0.79776   0.10206   0.00000  Uiso   1.00
GAFF2_ha    H     0.68679   0.77850   0.10091   0.00000  Uiso   1.00
GAFF2_h4    H     0.61607   0.69973   0.21389   0.00000  Uiso   1.00
GAFF2_ha    H     0.88659   0.85698   0.29179   0.00000  Uiso   1.00
GAFF2_ha    H     0.74774   0.70461   0.28662   0.00000  Uiso   1.00
GAFF2_c3    C     0.61118   0.74170   0.08883   0.00000  Uiso   1.00
GAFF2_c3    C     0.63562   0.71583   0.06095   0.00000  Uiso   1.00
GAFF2_c3    C     0.61981   0.71611   0.01840   0.00000  Uiso   1.00
GAFF2_c     C     0.58301   0.69283   0.01064   0.00000  Uiso   1.00
GAFF2_o     O     0.56145   0.68334   0.03594   0.00000  Uiso   1.00
GAFF2_c3    C     0.57209   0.68190  -0.03047   0.00000  Uiso   1.00
GAFF2_c3    C     0.53673   0.65603  -0.03277   0.00000  Uiso   1.00
GAFF2_c3    C     0.52063   0.65316  -0.07474   0.00000  Uiso   1.00
GAFF2_hc    H     0.50510   0.62556  -0.07273   0.00000  Uiso   1.00
GAFF2_hc    H     0.51516   0.66782  -0.01294   0.00000  Uiso   1.00
GAFF2_hc    H     0.54564   0.62757  -0.02185   0.00000  Uiso   1.00
GAFF2_hc    H     0.56289   0.70806  -0.04571   0.00000  Uiso   1.00
GAFF2_hc    H     0.61032   0.74544   0.01150   0.00000  Uiso   1.00
GAFF2_hc    H     0.63044   0.68708   0.07331   0.00000  Uiso   1.00
GAFF2_hc    H     0.60773   0.77131   0.07906   0.00000  Uiso   1.00
GAFF2_hc    H     0.58243   0.72876   0.09314   0.00000  Uiso   1.00
GAFF2_ca    C     0.54190   0.65028  -0.14489   0.00000  Uiso   1.00
GAFF2_ca    C     0.56806   0.64166  -0.17508   0.00000  Uiso   1.00
GAFF2_ca    C     0.60601   0.63677  -0.16501   0.00000  Uiso   1.00
GAFF2_ca    C     0.55311   0.65431  -0.10522   0.00000  Uiso   1.00
GAFF2_ca    C     0.61722   0.62067  -0.22970   0.00000  Uiso   1.00
GAFF2_ca    C     0.59278   0.65402  -0.09688   0.00000  Uiso   1.00
GAFF2_ca    C     0.63131   0.62498  -0.19434   0.00000  Uiso   1.00
GAFF2_ca    C     0.48843   0.64971  -0.19290   0.00000  Uiso   1.00
GAFF2_ca    C     0.50137   0.65603  -0.15581   0.00000  Uiso   1.00
GAFF2_ca    C     0.47492   0.67098  -0.12678   0.00000  Uiso   1.00
GAFF2_ca    C     0.44904   0.65258  -0.20325   0.00000  Uiso   1.00
GAFF2_ca    C     0.42403   0.66494  -0.17565   0.00000  Uiso   1.00
GAFF2_ca    C     0.43582   0.67730  -0.13828   0.00000  Uiso   1.00
GAFF2_ca    C     0.51488   0.63763  -0.22193   0.00000  Uiso   1.00
GAFF2_ha    H     0.39414   0.66724  -0.18399   0.00000  Uiso   1.00
GAFF2_ca    C     0.67012   0.61837  -0.18427   0.00000  Uiso   1.00
GAFF2_ca    C     0.68334   0.62671  -0.14776   0.00000  Uiso   1.00
GAFF2_nb    N     0.58071   0.62699  -0.24091   0.00000  Uiso   1.00
GAFF2_ca    C     0.61837   0.64367  -0.12563   0.00000  Uiso   1.00
GAFF2_ca    C     0.65804   0.63591  -0.11815   0.00000  Uiso   1.00
GAFF2_ca    C     0.55455   0.63533  -0.21302   0.00000  Uiso   1.00
GAFF2_c3    C     0.70260   0.60141  -0.20641   0.00000  Uiso   1.00
GAFF2_c3    C     0.73652   0.59336  -0.17680   0.00000  Uiso   1.00
GAFF2_c3    C     0.74860   0.54880  -0.17105   0.00000  Uiso   1.00
GAFF2_hc    H     0.76297   0.53615  -0.19635   0.00000  Uiso   1.00
GAFF2_hc    H     0.77246   0.54592  -0.15064   0.00000  Uiso   1.00
GAFF2_hc    H     0.76355   0.60285  -0.19031   0.00000  Uiso   1.00
GAFF2_hc    H     0.69225   0.57324  -0.21647   0.00000  Uiso   1.00
GAFF2_hc    H     0.71036   0.61693  -0.23286   0.00000  Uiso   1.00
GAFF2_h4    H     0.63533   0.61578  -0.25499   0.00000  Uiso   1.00
GAFF2_ha    H     0.50855   0.63044  -0.25183   0.00000  Uiso   1.00
GAFF2_ha    H     0.43984   0.64424  -0.23200   0.00000  Uiso   1.00
GAFF2_ha    H     0.66753   0.63619  -0.08826   0.00000  Uiso   1.00
GAFF2_c3    C     0.40736   0.70059  -0.11355   0.00000  Uiso   1.00
GAFF2_c3    C     0.37804   0.67299  -0.09401   0.00000  Uiso   1.00
GAFF2_c3    C     0.39414   0.64309  -0.06325   0.00000  Uiso   1.00
GAFF2_hc    H     0.37890   0.61550  -0.06181   0.00000  Uiso   1.00
GAFF2_hc    H     0.42375   0.63504  -0.07130   0.00000  Uiso   1.00
GAFF2_hc    H     0.35389   0.68880  -0.08078   0.00000  Uiso   1.00
GAFF2_hc    H     0.36366   0.65574  -0.11643   0.00000  Uiso   1.00
GAFF2_hc    H     0.41771   0.72100  -0.09171   0.00000  Uiso   1.00
GAFF2_os    O     0.71525   0.52523  -0.16300   0.00000  Uiso   1.00
GAFF2_c3    C     0.68593   0.53040  -0.13397   0.00000  Uiso   1.00
GAFF2_c3    C     0.70346   0.52494  -0.09286   0.00000  Uiso   1.00
GAFF2_c3    C     0.68133   0.54046  -0.05893   0.00000  Uiso   1.00
GAFF2_c3    C     0.64827   0.51488  -0.04398   0.00000  Uiso   1.00
GAFF2_hc    H     0.64913   0.48440  -0.05203   0.00000  Uiso   1.00
GAFF2_hc    H     0.61866   0.52436  -0.04887   0.00000  Uiso   1.00
GAFF2_hc    H     0.66638   0.56634  -0.06957   0.00000  Uiso   1.00
GAFF2_hc    H     0.70663   0.49360  -0.09171   0.00000  Uiso   1.00
GAFF2_hc    H     0.73336   0.53529  -0.09516   0.00000  Uiso   1.00
GAFF2_hc    H     0.67184   0.55886  -0.13512   0.00000  Uiso   1.00
GAFF2_hc    H     0.66207   0.51028  -0.13914   0.00000  Uiso   1.00
GAFF2_ca    C     0.70950   0.57439   0.12678   0.00000  Uiso   1.00
GAFF2_ca    C     0.67845   0.54765   0.11700   0.00000  Uiso   1.00
GAFF2_ca    C     0.72876   0.59163   0.09458   0.00000  Uiso   1.00
GAFF2_ca    C     0.75809   0.56001   0.23947   0.00000  Uiso   1.00
GAFF2_ca    C     0.77878   0.54995   0.27196   0.00000  Uiso   1.00
GAFF2_ca    C     0.75751   0.53213   0.30243   0.00000  Uiso   1.00
GAFF2_ca    C     0.66839   0.53788   0.07762   0.00000  Uiso   1.00
GAFF2_ca    C     0.72071   0.57956   0.05548   0.00000  Uiso   1.00
GAFF2_ca    C     0.68995   0.55282   0.04772   0.00000  Uiso   1.00
GAFF2_ca    C     0.65747   0.52983   0.14748   0.00000  Uiso   1.00
GAFF2_ca    C     0.63591   0.51488   0.06871   0.00000  Uiso   1.00
GAFF2_ca    C     0.62757   0.50597   0.03047   0.00000  Uiso   1.00
GAFF2_ca    C     0.65229   0.51775   0.00057   0.00000  Uiso   1.00
GAFF2_ca    C     0.68277   0.54276   0.00949   0.00000  Uiso   1.00
GAFF2_hc    H     0.74687   0.62987   0.19980   0.00000  Uiso   1.00
GAFF2_ca    C     0.66695   0.53701   0.18686   0.00000  Uiso   1.00
GAFF2_ca    C     0.70145   0.55886   0.19721   0.00000  Uiso   1.00
GAFF2_ca    C     0.61291   0.49935   0.09918   0.00000  Uiso   1.00
GAFF2_ca    C     0.62469   0.50769   0.13828   0.00000  Uiso   1.00
GAFF2_ca    C     0.64597   0.51919   0.21647   0.00000  Uiso   1.00
GAFF2_ca    C     0.61176   0.49792   0.20641   0.00000  Uiso   1.00
GAFF2_ca    C     0.60083   0.49274   0.16760   0.00000  Uiso   1.00
GAFF2_ca    C     0.71985   0.54822   0.23228   0.00000  Uiso   1.00
GAFF2_ca    C     0.69829   0.53040   0.26074   0.00000  Uiso   1.00
GAFF2_ca    C     0.65919   0.52178   0.25586   0.00000  Uiso   1.00
GAFF2_c3    C     0.58703   0.47693   0.23660   0.00000  Uiso   1.00
GAFF2_hc    H     0.59077   0.44559   0.23803   0.00000  Uiso   1.00
GAFF2_hc    H     0.55685   0.47980   0.22768   0.00000  Uiso   1.00
GAFF2_ca    C     0.71813   0.58186   0.16616   0.00000  Uiso   1.00
GAFF2_ha    H     0.57467   0.47635   0.16156   0.00000  Uiso   1.00
GAFF2_ha    H     0.73796   0.58905   0.03105   0.00000  Uiso   1.00
GAFF2_ha    H     0.60428   0.48728   0.02156   0.00000  Uiso   1.00
GAFF2_c3    C     0.57899   0.47147   0.09084   0.00000  Uiso   1.00
GAFF2_c3    C     0.54104   0.49303   0.08768   0.00000  Uiso   1.00
GAFF2_hc    H     0.54765   0.51574   0.06641   0.00000  Uiso   1.00
GAFF2_hc    H     0.57899   0.44876   0.11298   0.00000  Uiso   1.00
GAFF2_c3    C     0.59163   0.49964   0.27483   0.00000  Uiso   1.00
GAFF2_os    O     0.56519   0.48383   0.30042   0.00000  Uiso   1.00
GAFF2_c3    C     0.52868   0.50165   0.31134   0.00000  Uiso   1.00
GAFF2_c3    C     0.49763   0.48958   0.28202   0.00000  Uiso   1.00
GAFF2_c3    C     0.49562   0.44646   0.27109   0.00000  Uiso   1.00
GAFF2_hc    H     0.52350   0.43295   0.27828   0.00000  Uiso   1.00
GAFF2_hc    H     0.49389   0.44272   0.23976   0.00000  Uiso   1.00
GAFF2_hc    H     0.46917   0.49475   0.29524   0.00000  Uiso   1.00
GAFF2_hc    H     0.50424   0.50740   0.25701   0.00000  Uiso   1.00
GAFF2_hc    H     0.52839   0.53328   0.31335   0.00000  Uiso   1.00
GAFF2_hc    H     0.51976   0.49044   0.33951   0.00000  Uiso   1.00
GAFF2_ca    C     0.71238   0.62124   0.42605   0.00000  Uiso   1.00
GAFF2_ca    C     0.68995   0.59163   0.44329   0.00000  Uiso   1.00
GAFF2_ca    C     0.64769   0.57266   0.49590   0.00000  Uiso   1.00
GAFF2_ca    C     0.63016   0.58646   0.52839   0.00000  Uiso   1.00
GAFF2_ca    C     0.66580   0.60055   0.47463   0.00000  Uiso   1.00
GAFF2_ca    C     0.66638   0.63591   0.49015   0.00000  Uiso   1.00
GAFF2_ss    S     0.64022   0.63677   0.53241   0.00000  Uiso   1.00
GAFF2_ca    C     0.64568   0.53299   0.48527   0.00000  Uiso   1.00
GAFF2_ca    C     0.62469   0.50913   0.50999   0.00000  Uiso   1.00
GAFF2_c3    C     0.62124   0.46543   0.50079   0.00000  Uiso   1.00
GAFF2_hc    H     0.61808   0.44789   0.52666   0.00000  Uiso   1.00
GAFF2_hc    H     0.64884   0.45422   0.49044   0.00000  Uiso   1.00
GAFF2_c3    C     0.59250   0.45307   0.46974   0.00000  Uiso   1.00
GAFF2_c3    C     0.54535   0.38522   0.43898   0.00000  Uiso   1.00
GAFF2_c3    C     0.51229   0.36395   0.41742   0.00000  Uiso   1.00
GAFF2_c3    C     0.29610   0.29495   0.40247   0.00000  Uiso   1.00
GAFF2_c3    C     0.32284   0.28317   0.36884   0.00000  Uiso   1.00
GAFF2_ca    C     0.34871   0.41282   0.24062   0.00000  Uiso   1.00
GAFF2_ca    C     0.37746   0.43640   0.22136   0.00000  Uiso   1.00
GAFF2_ca    C     0.42748   0.41570   0.27167   0.00000  Uiso   1.00
GAFF2_ca    C     0.41483   0.43841   0.23832   0.00000  Uiso   1.00
GAFF2_ca    C     0.46428   0.42202   0.29007   0.00000  Uiso   1.00
GAFF2_ca    C     0.30933   0.40995   0.22826   0.00000  Uiso   1.00
GAFF2_ca    C     0.28576   0.38235   0.24695   0.00000  Uiso   1.00
GAFF2_ca    C     0.30128   0.35906   0.27598   0.00000  Uiso   1.00
GAFF2_ca    C     0.27224   0.33463   0.28691   0.00000  Uiso   1.00
GAFF2_c2    C     0.24781   0.37602   0.24378   0.00000  Uiso   1.00
GAFF2_na    N     0.23775   0.34296   0.26736   0.00000  Uiso   1.00
GAFF2_c3    C     0.22510   0.39299   0.21216   0.00000  Uiso   1.00
GAFF2_c3    C     0.24206   0.43295   0.19951   0.00000  Uiso   1.00
GAFF2_c3    C     0.22395   0.45106   0.16243   0.00000  Uiso   1.00
GAFF2_c3    C     0.20584   0.49102   0.17134   0.00000  Uiso   1.00
GAFF2_hc    H     0.22510   0.51401   0.18083   0.00000  Uiso   1.00
GAFF2_hc    H     0.18514   0.48814   0.19491   0.00000  Uiso   1.00
GAFF2_hc    H     0.20181   0.43093   0.15208   0.00000  Uiso   1.00
GAFF2_hc    H     0.19491   0.39557   0.22078   0.00000  Uiso   1.00
GAFF2_hc    H     0.22251   0.37401   0.18715   0.00000  Uiso   1.00
GAFF2_hn    H     0.21561   0.32514   0.26161   0.00000  Uiso   1.00
GAFF2_ha    H     0.43726   0.45479   0.22395   0.00000  Uiso   1.00
GAFF2_ca    C     0.31537   0.30875   0.33463   0.00000  Uiso   1.00
GAFF2_hc    H     0.24378   0.45479   0.13799   0.00000  Uiso   1.00
GAFF2_hc    H     0.24033   0.45278   0.22452   0.00000  Uiso   1.00
GAFF2_hc    H     0.31623   0.25241   0.36452   0.00000  Uiso   1.00
GAFF2_hc    H     0.35274   0.28029   0.37861   0.00000  Uiso   1.00
GAFF2_hc    H     0.30530   0.27742   0.42720   0.00000  Uiso   1.00
GAFF2_hc    H     0.26592   0.28633   0.39730   0.00000  Uiso   1.00
GAFF2_hc    H     0.49389   0.34900   0.43841   0.00000  Uiso   1.00
GAFF2_hc    H     0.39299   0.65775  -0.03536   0.00000  Uiso   1.00
GAFF2_ca    C     0.61118   0.56202   0.55512   0.00000  Uiso   1.00
GAFF2_ca    C     0.60802   0.52235   0.54449   0.00000  Uiso   1.00
GAFF2_ca    C     0.82392   0.79977   0.21762   0.00000  Uiso   1.00
GAFF2_ca    C     0.68622   0.66638   0.47377   0.00000  Uiso   1.00
GAFF2_ca    C     0.71008   0.65948   0.44128   0.00000  Uiso   1.00
GAFF2_ha    H     0.72618   0.68478   0.43266   0.00000  Uiso   1.00
GAFF2_ha    H     0.68650   0.69570   0.48469   0.00000  Uiso   1.00
GAFF2_ha    H     0.84145   0.84720   0.18083   0.00000  Uiso   1.00
GAFF2_ca    C     0.33635   0.36136   0.28949   0.00000  Uiso   1.00
GAFF2_ca    C     0.36165   0.38724   0.27224   0.00000  Uiso   1.00
GAFF2_ca    C     0.39989   0.39011   0.28633   0.00000  Uiso   1.00
GAFF2_ca    C     0.40736   0.36826   0.32083   0.00000  Uiso   1.00
GAFF2_ca    C     0.47089   0.40075   0.32370   0.00000  Uiso   1.00
GAFF2_ca    C     0.44272   0.37689   0.33923   0.00000  Uiso   1.00
GAFF2_ca    C     0.38062   0.34181   0.33923   0.00000  Uiso   1.00
GAFF2_ca    C     0.34440   0.33664   0.32198   0.00000  Uiso   1.00
GAFF2_ha    H     0.39040   0.32744   0.36539   0.00000  Uiso   1.00
GAFF2_c3    C     0.37344   0.46026   0.18427   0.00000  Uiso   1.00
GAFF2_c3    C     0.36194   0.50367   0.18945   0.00000  Uiso   1.00
GAFF2_c3    C     0.34383   0.51229   0.23085   0.00000  Uiso   1.00
GAFF2_hc    H     0.36567   0.50654   0.25270   0.00000  Uiso   1.00
GAFF2_hc    H     0.33865   0.54363   0.23286   0.00000  Uiso   1.00
GAFF2_hc    H     0.31882   0.49533   0.24005   0.00000  Uiso   1.00
GAFF2_hc    H     0.38781   0.52034   0.18226   0.00000  Uiso   1.00
GAFF2_hc    H     0.35130   0.44703   0.16588   0.00000  Uiso   1.00
GAFF2_hc    H     0.71525   0.45278   0.73480   0.00000  Uiso   1.00
GAFF2_ha    H     0.73307   0.61722   0.40305   0.00000  Uiso   1.00
GAFF2_hc    H     0.77735   0.59997   0.17191   0.00000  Uiso   1.00
GAFF2_os    O     0.69714   0.50482   0.32629   0.00000  Uiso   1.00
GAFF2_c3    C     0.70461   0.50453   0.36826   0.00000  Uiso   1.00
GAFF2_c3    C     0.69455   0.54420   0.38494   0.00000  Uiso   1.00
GAFF2_c3    C     0.69196   0.54794   0.42978   0.00000  Uiso   1.00
GAFF2_hc    H     0.71870   0.53529   0.44042   0.00000  Uiso   1.00
GAFF2_hc    H     0.66667   0.55397   0.37344   0.00000  Uiso   1.00
GAFF2_hc    H     0.71726   0.56346   0.37430   0.00000  Uiso   1.00
GAFF2_hc    H     0.68737   0.48009   0.37832   0.00000  Uiso   1.00
GAFF2_hc    H     0.73566   0.49964   0.37200   0.00000  Uiso   1.00
GAFF2_hc    H     0.68420   0.45824   0.69886   0.00000  Uiso   1.00
GAFF2_hc    H     0.73739   0.48498   0.65632   0.00000  Uiso   1.00
GAFF2_ca    C     0.85180   0.49849   0.35015   0.00000  Uiso   1.00
GAFF2_ha    H     0.86215   0.47204   0.33664   0.00000  Uiso   1.00
GAFF2_hc    H     0.92942   0.47750   0.34210   0.00000  Uiso   1.00
GAFF2_hc    H     0.69541   0.42001   0.77993   0.00000  Uiso   1.00
GAFF2_hc    H     0.52408   0.33808   0.40362   0.00000  Uiso   1.00
GAFF2_hc    H     0.52005   0.47377   0.07417   0.00000  Uiso   1.00
GAFF2_hc    H     0.58243   0.45249   0.06555   0.00000  Uiso   1.00
GAFF2_hc    H     0.58358   0.52983   0.26851   0.00000  Uiso   1.00
GAFF2_hc    H     0.66609   0.72359   0.06440   0.00000  Uiso   1.00
GAFF2_hc    H     0.34038   0.51028   0.16731   0.00000  Uiso   1.00
GAFF2_hc    H     0.39672   0.45997   0.16271   0.00000  Uiso   1.00
GAFF2_c3    C     0.60112   0.57841   0.59566   0.00000  Uiso   1.00
GAFF2_c3    C     0.59796   0.54736   0.62441   0.00000  Uiso   1.00
GAFF2_c3    C     0.57007   0.51631   0.60745   0.00000  Uiso   1.00
GAFF2_c3    C     0.58905   0.49533   0.57266   0.00000  Uiso   1.00
GAFF2_hc    H     0.62642   0.59451   0.60543   0.00000  Uiso   1.00
GAFF2_hc    H     0.57812   0.59997   0.59623   0.00000  Uiso   1.00
GAFF2_hc    H     0.62613   0.53385   0.62814   0.00000  Uiso   1.00
GAFF2_hc    H     0.54449   0.53069   0.59566   0.00000  Uiso   1.00
GAFF2_hc    H     0.61061   0.47520   0.58358   0.00000  Uiso   1.00
GAFF2_hc    H     0.56749   0.47779   0.55771   0.00000  Uiso   1.00
GAFF2_c3    C     0.60946   0.42231   0.44013   0.00000  Uiso   1.00
GAFF2_c3    C     0.53040   0.41857   0.46572   0.00000  Uiso   1.00
GAFF2_c3    C     0.57755   0.40247   0.41340   0.00000  Uiso   1.00
GAFF2_hc    H     0.55512   0.36136   0.45709   0.00000  Uiso   1.00
GAFF2_hc    H     0.62469   0.40075   0.45796   0.00000  Uiso   1.00
GAFF2_hc    H     0.63102   0.43381   0.42058   0.00000  Uiso   1.00
GAFF2_hc    H     0.50539   0.40995   0.48297   0.00000  Uiso   1.00
GAFF2_hc    H     0.52178   0.44301   0.44761   0.00000  Uiso   1.00
GAFF2_hc    H     0.59163   0.38034   0.39529   0.00000  Uiso   1.00
GAFF2_hc    H     0.56547   0.42403   0.39385   0.00000  Uiso   1.00
GAFF2_hc    H     0.58243   0.47923   0.45508   0.00000  Uiso   1.00
GAFF2_c3    C     0.58330   0.55599   0.66580   0.00000  Uiso   1.00
GAFF2_c3    C     0.55484   0.49389   0.64511   0.00000  Uiso   1.00
GAFF2_c3    C     0.57410   0.51603   0.68219   0.00000  Uiso   1.00
GAFF2_hc    H     0.60342   0.57324   0.68305   0.00000  Uiso   1.00
GAFF2_hc    H     0.55857   0.57496   0.66207   0.00000  Uiso   1.00
GAFF2_hc    H     0.56145   0.46313   0.64309   0.00000  Uiso   1.00
GAFF2_hc    H     0.52321   0.49705   0.64338   0.00000  Uiso   1.00
GAFF2_hc    H     0.55311   0.51545   0.70576   0.00000  Uiso   1.00
GAFF2_o     O     0.61665   0.53615   0.74774   0.00000  Uiso   1.00
GAFF2_hc    H     0.61952   0.45853   0.78770   0.00000  Uiso   1.00
GAFF2_hc    H     0.63159   0.42806   0.74457   0.00000  Uiso   1.00
GAFF2_ca    C     0.28001   0.30674   0.31508   0.00000  Uiso   1.00
GAFF2_ha    H     0.25586   0.28921   0.32543   0.00000  Uiso   1.00
GAFF2_os    O     0.45479   0.36338   0.37516   0.00000  Uiso   1.00
GAFF2_c3    C     0.82766   0.80293   0.12879   0.00000  Uiso   1.00
GAFF2_hc    H     0.85267   0.79833   0.14776   0.00000  Uiso   1.00
GAFF2_hc    H     0.82593   0.83398   0.12333   0.00000  Uiso   1.00
GAFF2_c3    C     0.68219   0.67615   0.25183   0.00000  Uiso   1.00
GAFF2_hc    H     0.69484   0.65057   0.26563   0.00000  Uiso   1.00
GAFF2_hc    H     0.66379   0.66379   0.22912   0.00000  Uiso   1.00
GAFF2_hc    H     0.66379   0.68564   0.27569   0.00000  Uiso   1.00
GAFF2_c3    C     0.48440   0.38896   0.39069   0.00000  Uiso   1.00
GAFF2_hc    H     0.47061   0.41397   0.40448   0.00000  Uiso   1.00
GAFF2_os    O     0.56030   0.43208   0.48699   0.00000  Uiso   1.00
GAFF2_hc    H     0.18772   0.50108   0.14748   0.00000  Uiso   1.00
GAFF2_c3    C     0.75205   0.64424   0.13799   0.00000  Uiso   1.00
GAFF2_c3    C     0.78770   0.67040   0.13972   0.00000  Uiso   1.00
GAFF2_c3    C     0.76182   0.61751   0.10148   0.00000  Uiso   1.00
GAFF2_c3    C     0.77102   0.64827   0.07187   0.00000  Uiso   1.00
GAFF2_c3    C     0.79977   0.67357   0.09602   0.00000  Uiso   1.00
GAFF2_hc    H     0.72560   0.66149   0.13397   0.00000  Uiso   1.00
GAFF2_hc    H     0.77878   0.69973   0.14690   0.00000  Uiso   1.00
GAFF2_hc    H     0.81041   0.66005   0.15926   0.00000  Uiso   1.00
GAFF2_hc    H     0.78770   0.59997   0.10694   0.00000  Uiso   1.00
GAFF2_hc    H     0.74400   0.66293   0.06382   0.00000  Uiso   1.00
GAFF2_hc    H     0.78396   0.63533   0.04600   0.00000  Uiso   1.00
GAFF2_hc    H     0.82909   0.66207   0.09171   0.00000  Uiso   1.00
GAFF2_c3    C     0.81558   0.42633   0.38321   0.00000  Uiso   1.00
GAFF2_hc    H     0.84605   0.42087   0.38982   0.00000  Uiso   1.00
GAFF2_hc    H     0.81127   0.42490   0.35188   0.00000  Uiso   1.00
GAFF2_hc    H     0.79431   0.40678   0.39615   0.00000  Uiso   1.00
GAFF2_os    O     0.83254   0.77907   0.09429   0.00000  Uiso   1.00
GAFF2_c3    C     0.83542   0.73854   0.10206   0.00000  Uiso   1.00
GAFF2_c3    C     0.80552   0.71669   0.07791   0.00000  Uiso   1.00
GAFF2_hc    H     0.86417   0.72732   0.09429   0.00000  Uiso   1.00
GAFF2_hc    H     0.83369   0.73106   0.13282   0.00000  Uiso   1.00
GAFF2_hc    H     0.77936   0.73422   0.07906   0.00000  Uiso   1.00
GAFF2_hc    H     0.81644   0.71324   0.04830   0.00000  Uiso   1.00
GAFF2_hc    H     0.53184   0.50137   0.11672   0.00000  Uiso   1.00
GAFF2_c3    C     0.63159   0.50280   0.28892   0.00000  Uiso   1.00
GAFF2_hc    H     0.63246   0.52264   0.31335   0.00000  Uiso   1.00
GAFF2_hc    H     0.64281   0.47348   0.29409   0.00000  Uiso   1.00
GAFF2_c3    C     0.49044   0.68219  -0.08653   0.00000  Uiso   1.00
GAFF2_hc    H     0.50252   0.71123  -0.08452   0.00000  Uiso   1.00
GAFF2_hc    H     0.46831   0.68593  -0.06411   0.00000  Uiso   1.00
GAFF2_c3    C     0.60543   0.66408  -0.05433   0.00000  Uiso   1.00
GAFF2_hc    H     0.61866   0.63849  -0.04168   0.00000  Uiso   1.00
GAFF2_c3    C     0.81328   0.72962   0.30502   0.00000  Uiso   1.00
GAFF2_hc    H     0.78942   0.74055   0.32313   0.00000  Uiso   1.00
GAFF2_hc    H     0.81644   0.69829   0.30243   0.00000  Uiso   1.00
GAFF2_hc    H     0.29869   0.32600   0.40678   0.00000  Uiso   1.00
GAFF2_c3    C     0.70461   0.52120   0.59537   0.00000  Uiso   1.00
GAFF2_hc    H     0.67759   0.52954   0.58157   0.00000  Uiso   1.00
GAFF2_hc    H     0.69858   0.49360   0.60946   0.00000  Uiso   1.00
GAFF2_c3    C     0.70433   0.55541  -0.02559   0.00000  Uiso   1.00
GAFF2_hc    H     0.70461   0.58703  -0.02530   0.00000  Uiso   1.00
GAFF2_hc    H     0.73422   0.54535  -0.02329   0.00000  Uiso   1.00
GAFF2_os    O     0.82421   0.60543   0.39701   0.00000  Uiso   1.00
GAFF2_c3    C     0.74055   0.66005   0.55771   0.00000  Uiso   1.00
GAFF2_hc    H     0.71295   0.66264   0.57324   0.00000  Uiso   1.00
GAFF2_hc    H     0.73422   0.68104   0.53500   0.00000  Uiso   1.00
GAFF2_hc    H     0.76039   0.67529   0.57697   0.00000  Uiso   1.00
GAFF2_c3    C     0.72589   0.61636  -0.13885   0.00000  Uiso   1.00
GAFF2_hc    H     0.73077   0.59825  -0.11355   0.00000  Uiso   1.00
GAFF2_hc    H     0.74716   0.63964  -0.13655   0.00000  Uiso   1.00
GAFF2_c3    C     0.65833   0.52178   0.44531   0.00000  Uiso   1.00
GAFF2_hc    H     0.66667   0.49130   0.44531   0.00000  Uiso   1.00
GAFF2_hc    H     0.63159   0.52666   0.42921   0.00000  Uiso   1.00
GAFF2_c3    C     0.63792   0.69743  -0.05203   0.00000  Uiso   1.00
GAFF2_c3    C     0.65028   0.70461  -0.01092   0.00000  Uiso   1.00
GAFF2_hc    H     0.62354   0.72388  -0.06152   0.00000  Uiso   1.00
GAFF2_hc    H     0.66408   0.69685  -0.07015   0.00000  Uiso   1.00
GAFF2_hc    H     0.67328   0.72646  -0.00977   0.00000  Uiso   1.00
GAFF2_hc    H     0.66523   0.67874  -0.00086   0.00000  Uiso   1.00
GAFF2_c3    C     0.28633   0.43065   0.19577   0.00000  Uiso   1.00
GAFF2_hc    H     0.29783   0.45968   0.19290   0.00000  Uiso   1.00
GAFF2_hc    H     0.29352   0.41771   0.16789   0.00000  Uiso   1.00
GAFF2_c3    C     0.50280   0.40650   0.35446   0.00000  Uiso   1.00
GAFF2_hc    H     0.53184   0.39615   0.34641   0.00000  Uiso   1.00
GAFF2_hc    H     0.50798   0.43726   0.35906   0.00000  Uiso   1.00
GAFF2_hc    H     0.38810   0.71928  -0.13023   0.00000  Uiso   1.00
GAFF2_oh    O     0.98232   0.46227   0.26764   0.00000  Uiso   1.00
GAFF2_o     O     0.92022   0.45106   0.26937   0.00000  Uiso   1.00
GAFF2_ho    H     0.97571   0.45709   0.24091   0.00000  Uiso   1.00
GAFF2_ca    C     0.85180   0.80408   0.28346   0.00000  Uiso   1.00
GAFF2_ha    H     0.88084   0.88285   0.22941   0.00000  Uiso   1.00
GAFF2_c3    C     0.74946   0.61463   0.17249   0.00000  Uiso   1.00
GAFF2_ca    C     0.71813   0.52091   0.29754   0.00000  Uiso   1.00
GAFF2_ha    H     0.77016   0.52580   0.33031   0.00000  Uiso   1.00
GAFF2_ha    H     0.80839   0.55800   0.27799   0.00000  Uiso   1.00
GAFF2_ha    H     0.77878   0.57094   0.21877   0.00000  Uiso   1.00
GAFF2_ca    C     0.86704   0.31450   0.82104   0.00000  Uiso   1.00
GAFF2_ca    C     0.83484   0.30674   0.79776   0.00000  Uiso   1.00
GAFF2_ca    C     0.87336   0.31192   0.74084   0.00000  Uiso   1.00
GAFF2_ca    C     0.83800   0.30617   0.75751   0.00000  Uiso   1.00
GAFF2_ca    C     0.80466   0.29869   0.73451   0.00000  Uiso   1.00
GAFF2_ca    C     0.87768   0.30875   0.69886   0.00000  Uiso   1.00
GAFF2_ca    C     0.79833   0.29840   0.81529   0.00000  Uiso   1.00
GAFF2_ca    C     0.76527   0.29380   0.79345   0.00000  Uiso   1.00
GAFF2_ca    C     0.84519   0.29898   0.67644   0.00000  Uiso   1.00
GAFF2_ca    C     0.80897   0.29668   0.69426   0.00000  Uiso   1.00
GAFF2_ca    C     0.76757   0.29725   0.75205   0.00000  Uiso   1.00
GAFF2_ca    C     0.73652   0.28978   0.73049   0.00000  Uiso   1.00
GAFF2_ca    C     0.77390   0.28719   0.67299   0.00000  Uiso   1.00
GAFF2_ca    C     0.73882   0.28633   0.69024   0.00000  Uiso   1.00
GAFF2_ca    C     0.90240   0.32140   0.80351   0.00000  Uiso   1.00
GAFF2_c2    C     0.73422   0.29150   0.81961   0.00000  Uiso   1.00
GAFF2_c2    C     0.78655   0.29582   0.85267   0.00000  Uiso   1.00
GAFF2_na    N     0.74659   0.29093   0.85842   0.00000  Uiso   1.00
GAFF2_hn    H     0.73192   0.30789   0.87681   0.00000  Uiso   1.00
GAFF2_ca    C     0.90585   0.32140   0.76355   0.00000  Uiso   1.00
GAFF2_ha    H     0.77505   0.28202   0.64223   0.00000  Uiso   1.00
GAFF2_ha    H     0.84462   0.29582   0.64539   0.00000  Uiso   1.00
GAFF2_ha    H     0.71094   0.28489   0.74802   0.00000  Uiso   1.00
GAFF2_ha    H     0.86647   0.30875   0.85180   0.00000  Uiso   1.00
GAFF2_h4    H     0.70548   0.27972   0.81616   0.00000  Uiso   1.00
GAFF2_h4    H     0.80494   0.29898   0.87768   0.00000  Uiso   1.00
GAFF2_ha    H     0.92655   0.32457   0.82334   0.00000  Uiso   1.00
GAFF2_c3    C     0.94466   0.33290   0.74601   0.00000  Uiso   1.00
GAFF2_c3    C     0.94121   0.34210   0.70289   0.00000  Uiso   1.00
GAFF2_c3    C     0.91936   0.31163   0.67932   0.00000  Uiso   1.00
GAFF2_c3    C     0.70433   0.27397   0.66753   0.00000  Uiso   1.00
GAFF2_c3    C     0.69426   0.23200   0.67012   0.00000  Uiso   1.00
GAFF2_c3    C     0.71870   0.20497   0.64252   0.00000  Uiso   1.00
GAFF2_hc    H     0.69541   0.22165   0.70001   0.00000  Uiso   1.00
GAFF2_hc    H     0.70720   0.28748   0.63936   0.00000  Uiso   1.00
GAFF2_hc    H     0.67960   0.28892   0.68018   0.00000  Uiso   1.00
GAFF2_hc    H     0.93316   0.28317   0.67960   0.00000  Uiso   1.00
GAFF2_hc    H     0.92712   0.37056   0.70116   0.00000  Uiso   1.00
GAFF2_hc    H     0.97140   0.34210   0.69340   0.00000  Uiso   1.00
GAFF2_hc    H     0.96737   0.31134   0.75061   0.00000  Uiso   1.00
GAFF2_hc    H     0.95558   0.35734   0.76297   0.00000  Uiso   1.00
GAFF2_ca    C     1.00388   0.12505   0.66437   0.00000  Uiso   1.00
GAFF2_ca    C     1.02257   0.16099   0.66235   0.00000  Uiso   1.00
GAFF2_ca    C     1.06253   0.16271   0.67414   0.00000  Uiso   1.00
GAFF2_ca    C     1.00618   0.19520   0.64396   0.00000  Uiso   1.00
GAFF2_ca    C     0.96852   0.19232   0.62958   0.00000  Uiso   1.00
GAFF2_ca    C     0.94868   0.15581   0.63246   0.00000  Uiso   1.00
GAFF2_ca    C     0.96910   0.12160   0.64511   0.00000  Uiso   1.00
GAFF2_ca    C     1.08668   0.19434   0.66609   0.00000  Uiso   1.00
GAFF2_ca    C     1.02774   0.22740   0.63936   0.00000  Uiso   1.00
GAFF2_ca    C     1.06885   0.22740   0.64971   0.00000  Uiso   1.00
GAFF2_ca    C     1.07115   0.29064   0.62441   0.00000  Uiso   1.00
GAFF2_ca    C     1.01222   0.26017   0.62009   0.00000  Uiso   1.00
GAFF2_ca    C     1.07949   0.12994   0.69139   0.00000  Uiso   1.00
GAFF2_ca    C     1.12606   0.19347   0.67615   0.00000  Uiso   1.00
GAFF2_ca    C     1.14877   0.22797   0.66954   0.00000  Uiso   1.00
GAFF2_ca    C     1.13037   0.26132   0.65057   0.00000  Uiso   1.00
GAFF2_ca    C     1.09127   0.26046   0.64194   0.00000  Uiso   1.00
GAFF2_h4    H     1.08783   0.31623   0.61693   0.00000  Uiso   1.00
GAFF2_ca    C     0.94955   0.22625   0.61521   0.00000  Uiso   1.00
GAFF2_ca    C     0.97312   0.26103   0.60946   0.00000  Uiso   1.00
GAFF2_ca    C     1.05850   0.09602   0.69599   0.00000  Uiso   1.00
GAFF2_nb    N     1.03493   0.29093   0.61205   0.00000  Uiso   1.00
GAFF2_ca    C     1.02084   0.09343   0.68162   0.00000  Uiso   1.00
GAFF2_ha    H     1.00446   0.06698   0.68564   0.00000  Uiso   1.00
GAFF2_c3    C     0.95386   0.29697   0.58933   0.00000  Uiso   1.00
GAFF2_c3    C     0.94322   0.33319   0.61435   0.00000  Uiso   1.00
GAFF2_hc    H     0.93805   0.35705   0.59393   0.00000  Uiso   1.00
GAFF2_hc    H     0.96910   0.34440   0.62843   0.00000  Uiso   1.00
GAFF2_hc    H     0.97715   0.30703   0.57065   0.00000  Uiso   1.00
GAFF2_hc    H     0.93086   0.28489   0.57122   0.00000  Uiso   1.00
GAFF2_os    O     0.91361   0.32342   0.63993   0.00000  Uiso   1.00
GAFF2_ca    C     1.14130   0.16041   0.69168   0.00000  Uiso   1.00
GAFF2_ca    C     1.18126   0.16041   0.70174   0.00000  Uiso   1.00
GAFF2_ca    C     1.20454   0.19117   0.69570   0.00000  Uiso   1.00
GAFF2_c3    C     1.24536   0.18600   0.70059   0.00000  Uiso   1.00
GAFF2_c3    C     1.26750   0.21877   0.72244   0.00000  Uiso   1.00
GAFF2_c3    C     1.31005   0.20727   0.73049   0.00000  Uiso   1.00
GAFF2_c     C     1.33736   0.20267   0.69340   0.00000  Uiso   1.00
GAFF2_hc    H     1.32557   0.22826   0.74831   0.00000  Uiso   1.00
GAFF2_hc    H     1.26779   0.24580   0.70576   0.00000  Uiso   1.00
GAFF2_hc    H     1.25313   0.22768   0.74889   0.00000  Uiso   1.00
GAFF2_hc    H     1.25715   0.18111   0.67184   0.00000  Uiso   1.00
GAFF2_hc    H     1.24968   0.15869   0.71611   0.00000  Uiso   1.00
GAFF2_ha    H     1.19074   0.13368   0.71496   0.00000  Uiso   1.00
GAFF2_c3    C     1.07345   0.06267   0.72330   0.00000  Uiso   1.00
GAFF2_c3    C     1.11427   0.04456   0.71611   0.00000  Uiso   1.00
GAFF2_c3    C     1.12664   0.01265   0.74601   0.00000  Uiso   1.00
GAFF2_os    O     1.16343  -0.00575   0.73394   0.00000  Uiso   1.00
GAFF2_c3    C     1.19851   0.01380   0.74256   0.00000  Uiso   1.00
GAFF2_c3    C     1.21432   0.03392   0.70576   0.00000  Uiso   1.00
GAFF2_ca    C     1.27986   0.04053   0.74256   0.00000  Uiso   1.00
GAFF2_hc    H     1.19419   0.05405   0.69196   0.00000  Uiso   1.00
GAFF2_hc    H     1.21978   0.01121   0.68449   0.00000  Uiso   1.00
GAFF2_hc    H     1.19391   0.03565   0.76498   0.00000  Uiso   1.00
GAFF2_hc    H     1.10651  -0.01179   0.74227   0.00000  Uiso   1.00
GAFF2_hc    H     1.12721   0.02329   0.77562   0.00000  Uiso   1.00
GAFF2_hc    H     1.11226   0.03019   0.68794   0.00000  Uiso   1.00
GAFF2_hc    H     1.13727   0.06612   0.71611   0.00000  Uiso   1.00
GAFF2_hc    H     1.05333   0.03852   0.72043   0.00000  Uiso   1.00
GAFF2_hc    H     1.07431   0.07273   0.75320   0.00000  Uiso   1.00
GAFF2_c3    C     0.90614   0.15380   0.61693   0.00000  Uiso   1.00
GAFF2_c3    C     0.88170   0.19117   0.62009   0.00000  Uiso   1.00
GAFF2_c3    C     0.83973   0.18772   0.60198   0.00000  Uiso   1.00
GAFF2_hc    H     0.84433   0.18485   0.57094   0.00000  Uiso   1.00
GAFF2_hc    H     0.82651   0.21619   0.60457   0.00000  Uiso   1.00
GAFF2_hc    H     0.87394   0.19807   0.64999   0.00000  Uiso   1.00
GAFF2_hc    H     0.88946   0.12965   0.62872   0.00000  Uiso   1.00
GAFF2_hc    H     0.91160   0.14776   0.58646   0.00000  Uiso   1.00
GAFF2_c3    C     0.73279   0.13425   0.61866   0.00000  Uiso   1.00
GAFF2_c3    C     0.81041   0.15610   0.61636   0.00000  Uiso   1.00
GAFF2_ss    S     0.76786   0.15926   0.58588   0.00000  Uiso   1.00
GAFF2_hc    H     0.80236   0.16501   0.64568   0.00000  Uiso   1.00
GAFF2_c3    C     0.72186   0.16185   0.65488   0.00000  Uiso   1.00
GAFF2_c     C     0.74802   0.15208   0.68880   0.00000  Uiso   1.00
GAFF2_c3    C     0.75809   0.18226   0.71813   0.00000  Uiso   1.00
GAFF2_hc    H     0.73250   0.18312   0.73624   0.00000  Uiso   1.00
GAFF2_hc    H     0.76039   0.21101   0.70490   0.00000  Uiso   1.00
GAFF2_hc    H     0.69283   0.15438   0.66494   0.00000  Uiso   1.00
GAFF2_ca    C     1.35863  -0.05606   0.82622   0.00000  Uiso   1.00
GAFF2_ca    C     1.33851   0.00316   0.78626   0.00000  Uiso   1.00
GAFF2_ca    C     1.36496  -0.01782   0.80782   0.00000  Uiso   1.00
GAFF2_ca    C     1.40204  -0.00172   0.81041   0.00000  Uiso   1.00
GAFF2_ca    C     1.34627   0.03881   0.77102   0.00000  Uiso   1.00
GAFF2_ca    C     1.39255  -0.07417   0.84232   0.00000  Uiso   1.00
GAFF2_ca    C     1.42820  -0.05778   0.84260   0.00000  Uiso   1.00
GAFF2_ca    C     1.38134   0.05721   0.77993   0.00000  Uiso   1.00
GAFF2_ca    C     1.40952   0.03565   0.80034   0.00000  Uiso   1.00
GAFF2_ca    C     1.43309  -0.02099   0.82651   0.00000  Uiso   1.00
GAFF2_ca    C     1.29395  -0.05261   0.79603   0.00000  Uiso   1.00
GAFF2_c2    C     1.45724  -0.07934   0.85957   0.00000  Uiso   1.00
GAFF2_c2    C     1.40233  -0.11010   0.85870   0.00000  Uiso   1.00
GAFF2_na    N     1.44258  -0.11557   0.86877   0.00000  Uiso   1.00
GAFF2_hn    H     1.45724  -0.13569   0.88371   0.00000  Uiso   1.00
GAFF2_ca    C     1.30114  -0.01409   0.78108   0.00000  Uiso   1.00
GAFF2_ca    C     1.27038   0.00517   0.76182   0.00000  Uiso   1.00
GAFF2_ca    C     1.26290   0.08739   0.69369   0.00000  Uiso   1.00
GAFF2_ca    C     1.29884   0.10407   0.69685   0.00000  Uiso   1.00
GAFF2_ca    C     1.32672   0.09056   0.72359   0.00000  Uiso   1.00
GAFF2_ca    C     1.32327  -0.07474   0.81759   0.00000  Uiso   1.00
GAFF2_ha    H     1.43798   0.04830   0.80494   0.00000  Uiso   1.00
GAFF2_ha    H     1.46097  -0.00690   0.82938   0.00000  Uiso   1.00
GAFF2_h4    H     1.38307  -0.12793   0.87595   0.00000  Uiso   1.00
GAFF2_ha    H     1.24421   0.09861   0.67127   0.00000  Uiso   1.00
GAFF2_ha    H     1.26808  -0.06756   0.78683   0.00000  Uiso   1.00
GAFF2_c3    C     1.50122  -0.07101   0.86359   0.00000  Uiso   1.00
GAFF2_c3    C     1.51301  -0.05663   0.90384   0.00000  Uiso   1.00
GAFF2_c3    C     1.48455  -0.03191   0.92454   0.00000  Uiso   1.00
GAFF2_c     C     1.47707   0.00776   0.90844   0.00000  Uiso   1.00
GAFF2_o     O     1.49777   0.02271   0.88400   0.00000  Uiso   1.00
GAFF2_c3    C     1.44660   0.03220   0.92971   0.00000  Uiso   1.00
GAFF2_c3    C     1.43251   0.06756   0.90987   0.00000  Uiso   1.00
GAFF2_c3    C     1.39514   0.08481   0.92885   0.00000  Uiso   1.00
GAFF2_hc    H     1.39859   0.11614   0.92655   0.00000  Uiso   1.00
GAFF2_hc    H     1.42849   0.06382   0.87854   0.00000  Uiso   1.00
GAFF2_hc    H     1.45436   0.08969   0.91562   0.00000  Uiso   1.00
GAFF2_hc    H     1.42245   0.01207   0.92655   0.00000  Uiso   1.00
GAFF2_hc    H     1.45609  -0.04571   0.92109   0.00000  Uiso   1.00
GAFF2_hc    H     1.54003  -0.04025   0.90326   0.00000  Uiso   1.00
GAFF2_hc    H     1.51272  -0.04830   0.84462   0.00000  Uiso   1.00
GAFF2_hc    H     1.51588  -0.09631   0.85209   0.00000  Uiso   1.00
GAFF2_ca    C     1.35892   0.08998   0.99152   0.00000  Uiso   1.00
GAFF2_ca    C     1.36007   0.09372   1.03148   0.00000  Uiso   1.00
GAFF2_ca    C     1.39514   0.08768   1.05275   0.00000  Uiso   1.00
GAFF2_ca    C     1.39457   0.07963   0.97255   0.00000  Uiso   1.00
GAFF2_ca    C     1.36323   0.10723   1.11082   0.00000  Uiso   1.00
GAFF2_ca    C     1.42475   0.06181   0.99296   0.00000  Uiso   1.00
GAFF2_ca    C     1.39715   0.09228   1.09501   0.00000  Uiso   1.00
GAFF2_ca    C     1.29050   0.10551   0.99238   0.00000  Uiso   1.00
GAFF2_ca    C     1.32298   0.09487   0.97053   0.00000  Uiso   1.00
GAFF2_ca    C     1.32068   0.08624   0.93057   0.00000  Uiso   1.00
GAFF2_ca    C     1.25600   0.10809   0.97513   0.00000  Uiso   1.00
GAFF2_ca    C     1.25399   0.10234   0.93546   0.00000  Uiso   1.00
GAFF2_ca    C     1.28647   0.09429   0.91131   0.00000  Uiso   1.00
GAFF2_ca    C     1.29366   0.11442   1.03177   0.00000  Uiso   1.00
GAFF2_ha    H     1.22668   0.10206   0.92022   0.00000  Uiso   1.00
GAFF2_ca    C     1.43108   0.08711   1.11341   0.00000  Uiso   1.00
GAFF2_ca    C     1.46385   0.07704   1.09357   0.00000  Uiso   1.00
GAFF2_nb    N     1.32931   0.11212   1.09185   0.00000  Uiso   1.00
GAFF2_ca    C     1.42705   0.07158   1.03320   0.00000  Uiso   1.00
GAFF2_ca    C     1.46270   0.06698   1.05362   0.00000  Uiso   1.00
GAFF2_ca    C     1.32845   0.10608   1.05333   0.00000  Uiso   1.00
GAFF2_c3    C     1.44258   0.09746   1.15625   0.00000  Uiso   1.00
GAFF2_c3    C     1.48656   0.10234   1.15682   0.00000  Uiso   1.00
GAFF2_c3    C     1.49777   0.14633   1.16085   0.00000  Uiso   1.00
GAFF2_hc    H     1.48282   0.15898   1.18557   0.00000  Uiso   1.00
GAFF2_hc    H     1.52939   0.14978   1.16113   0.00000  Uiso   1.00
GAFF2_hc    H     1.49691   0.08768   1.18298   0.00000  Uiso   1.00
GAFF2_hc    H     1.42849   0.12362   1.16688   0.00000  Uiso   1.00
GAFF2_hc    H     1.43338   0.07302   1.17378   0.00000  Uiso   1.00
GAFF2_h4    H     1.36122   0.11097   1.14187   0.00000  Uiso   1.00
GAFF2_ha    H     1.26721   0.12419   1.04528   0.00000  Uiso   1.00
GAFF2_ha    H     1.22984   0.11873   0.98864   0.00000  Uiso   1.00
GAFF2_ha    H     1.48915   0.05750   1.03924   0.00000  Uiso   1.00
GAFF2_c3    C     1.27871   0.08768   0.86905   0.00000  Uiso   1.00
GAFF2_c3    C     1.27699   0.04398   0.85583   0.00000  Uiso   1.00
GAFF2_c3    C     1.23731   0.02357   0.86244   0.00000  Uiso   1.00
GAFF2_hc    H     1.21230   0.04025   0.85267   0.00000  Uiso   1.00
GAFF2_hc    H     1.23674  -0.00287   0.84519   0.00000  Uiso   1.00
GAFF2_hc    H     1.28072   0.04600   0.82449   0.00000  Uiso   1.00
GAFF2_hc    H     1.29769   0.02444   0.86963   0.00000  Uiso   1.00
GAFF2_hc    H     1.25255   0.10148   0.85784   0.00000  Uiso   1.00
GAFF2_os    O     1.48426   0.16559   1.12520   0.00000  Uiso   1.00
GAFF2_c3    C     1.48340   0.20670   1.12778   0.00000  Uiso   1.00
GAFF2_c3    C     1.46960   0.22021   1.08840   0.00000  Uiso   1.00
GAFF2_c3    C     1.42935   0.20354   1.07805   0.00000  Uiso   1.00
GAFF2_c3    C     1.39342   0.21475   1.10479   0.00000  Uiso   1.00
GAFF2_hc    H     1.39198   0.24551   1.11140   0.00000  Uiso   1.00
GAFF2_hc    H     1.39284   0.19865   1.13181   0.00000  Uiso   1.00
GAFF2_hc    H     1.43280   0.17220   1.07920   0.00000  Uiso   1.00
GAFF2_hc    H     1.46672   0.25183   1.08783   0.00000  Uiso   1.00
GAFF2_hc    H     1.49087   0.21446   1.06569   0.00000  Uiso   1.00
GAFF2_hc    H     1.46155   0.21389   1.14963   0.00000  Uiso   1.00
GAFF2_hc    H     1.51128   0.21963   1.13497   0.00000  Uiso   1.00
GAFF2_ca    C     1.28705   0.21619   0.95127   0.00000  Uiso   1.00
GAFF2_ca    C     1.27469   0.21302   0.99008   0.00000  Uiso   1.00
GAFF2_ca    C     1.32730   0.21963   0.94035   0.00000  Uiso   1.00
GAFF2_ca    C     1.18988   0.23602   0.86790   0.00000  Uiso   1.00
GAFF2_ca    C     1.16315   0.23343   0.83772   0.00000  Uiso   1.00
GAFF2_ca    C     1.12951   0.21331   0.84519   0.00000  Uiso   1.00
GAFF2_ca    C     1.30401   0.21331   1.01998   0.00000  Uiso   1.00
GAFF2_ca    C     1.35432   0.21848   0.96910   0.00000  Uiso   1.00
GAFF2_ca    C     1.34253   0.21389   1.00819   0.00000  Uiso   1.00
GAFF2_ca    C     1.23674   0.20382   0.99957   0.00000  Uiso   1.00
GAFF2_ca    C     1.29165   0.20699   1.05994   0.00000  Uiso   1.00
GAFF2_ca    C     1.32097   0.20842   1.08754   0.00000  Uiso   1.00
GAFF2_ca    C     1.36122   0.21072   1.07690   0.00000  Uiso   1.00
GAFF2_ca    C     1.37128   0.21101   1.03809   0.00000  Uiso   1.00
GAFF2_hc    H     1.25370   0.19146   0.86532   0.00000  Uiso   1.00
GAFF2_ca    C     1.20972   0.20095   0.96795   0.00000  Uiso   1.00
GAFF2_ca    C     1.21777   0.21417   0.93000   0.00000  Uiso   1.00
GAFF2_ca    C     1.25169   0.20469   1.06856   0.00000  Uiso   1.00
GAFF2_ca    C     1.22524   0.19721   1.03809   0.00000  Uiso   1.00
GAFF2_ca    C     1.17321   0.18312   0.97600   0.00000  Uiso   1.00
GAFF2_ca    C     1.16228   0.17335   1.01509   0.00000  Uiso   1.00
GAFF2_ca    C     1.18844   0.18169   1.04499   0.00000  Uiso   1.00
GAFF2_ca    C     1.18729   0.21504   0.90154   0.00000  Uiso   1.00
GAFF2_ca    C     1.15078   0.19807   0.91045   0.00000  Uiso   1.00
GAFF2_ca    C     1.14561   0.17795   0.94753   0.00000  Uiso   1.00
GAFF2_c3    C     1.12462   0.15294   1.02487   0.00000  Uiso   1.00
GAFF2_hc    H     1.10162   0.17220   1.03493   0.00000  Uiso   1.00
GAFF2_hc    H     1.13008   0.13253   1.04844   0.00000  Uiso   1.00
GAFF2_ca    C     1.25773   0.21590   0.92137   0.00000  Uiso   1.00
GAFF2_ha    H     1.18154   0.17249   1.07431   0.00000  Uiso   1.00
GAFF2_ha    H     1.38422   0.21331   0.96191   0.00000  Uiso   1.00
GAFF2_ha    H     1.31350   0.21187   1.11772   0.00000  Uiso   1.00
GAFF2_c3    C     1.23933   0.20296   1.11111   0.00000  Uiso   1.00
GAFF2_c3    C     1.24508   0.16156   1.12893   0.00000  Uiso   1.00
GAFF2_hc    H     1.24364   0.16300   1.16056   0.00000  Uiso   1.00
GAFF2_hc    H     1.20914   0.21187   1.11399   0.00000  Uiso   1.00
GAFF2_c3    C     1.11111   0.12735   0.99209   0.00000  Uiso   1.00
GAFF2_os    O     1.07489   0.11384   1.00417   0.00000  Uiso   1.00
GAFF2_c3    C     1.05218   0.09257   0.97743   0.00000  Uiso   1.00
GAFF2_c3    C     1.07230   0.05606   0.96076   0.00000  Uiso   1.00
GAFF2_c3    C     1.04183   0.02702   0.94524   0.00000  Uiso   1.00
GAFF2_hc    H     1.05879   0.00172   0.93632   0.00000  Uiso   1.00
GAFF2_hc    H     1.03119   0.03479   0.91649   0.00000  Uiso   1.00
GAFF2_hc    H     1.09070   0.06555   0.93690   0.00000  Uiso   1.00
GAFF2_hc    H     1.08639   0.04082   0.98491   0.00000  Uiso   1.00
GAFF2_hc    H     1.04154   0.11039   0.95328   0.00000  Uiso   1.00
GAFF2_hc    H     1.02860   0.08222   0.99583   0.00000  Uiso   1.00
GAFF2_ca    C     1.07633   0.28633   0.81759   0.00000  Uiso   1.00
GAFF2_ca    C     1.04039   0.27397   0.83053   0.00000  Uiso   1.00
GAFF2_ca    C     0.97858   0.24407   0.81242   0.00000  Uiso   1.00
GAFF2_ca    C     0.96018   0.22682   0.78195   0.00000  Uiso   1.00
GAFF2_ca    C     1.01423   0.25844   0.80408   0.00000  Uiso   1.00
GAFF2_ca    C     1.02458   0.25528   0.76527   0.00000  Uiso   1.00
GAFF2_ss    S     0.98807   0.23372   0.73796   0.00000  Uiso   1.00
GAFF2_ca    C     0.96220   0.24810   0.84835   0.00000  Uiso   1.00
GAFF2_ca    C     0.92511   0.23200   0.85382   0.00000  Uiso   1.00
GAFF2_c3    C     0.90441   0.23717   0.89291   0.00000  Uiso   1.00
GAFF2_hc    H     0.87308   0.23947   0.88975   0.00000  Uiso   1.00
GAFF2_hc    H     0.91419   0.26448   0.90585   0.00000  Uiso   1.00
GAFF2_c3    C     0.91505   0.20497   0.92224   0.00000  Uiso   1.00
GAFF2_c3    C     0.90211   0.13253   0.96018   0.00000  Uiso   1.00
GAFF2_c3    C     0.91074   0.09659   0.98606   0.00000  Uiso   1.00
GAFF2_c3    C     0.84950  -0.02530   1.13210   0.00000  Uiso   1.00
GAFF2_c3    C     0.86647  -0.05778   1.10594   0.00000  Uiso   1.00
GAFF2_ca    C     1.04499  -0.06267   1.06943   0.00000  Uiso   1.00
GAFF2_ca    C     1.07316  -0.05261   1.04212   0.00000  Uiso   1.00
GAFF2_ca    C     1.02142  -0.01581   1.00359   0.00000  Uiso   1.00
GAFF2_ca    C     1.05965  -0.03105   1.00906   0.00000  Uiso   1.00
GAFF2_ca    C     1.01164   0.01092   0.97427   0.00000  Uiso   1.00
GAFF2_ca    C     1.05362  -0.08596   1.10364   0.00000  Uiso   1.00
GAFF2_ca    C     1.02228  -0.09889   1.12520   0.00000  Uiso   1.00
GAFF2_ca    C     0.98577  -0.08394   1.11974   0.00000  Uiso   1.00
GAFF2_ca    C     0.96162  -0.09832   1.14762   0.00000  Uiso   1.00
GAFF2_c2    C     1.01825  -0.11902   1.15941   0.00000  Uiso   1.00
GAFF2_na    N     0.97916  -0.11988   1.17551   0.00000  Uiso   1.00
GAFF2_c3    C     1.05103  -0.13828   1.17637   0.00000  Uiso   1.00
GAFF2_c3    C     1.09127  -0.11729   1.16631   0.00000  Uiso   1.00
GAFF2_c3    C     1.10450  -0.08624   1.19649   0.00000  Uiso   1.00
GAFF2_c3    C     1.10852  -0.10091   1.23559   0.00000  Uiso   1.00
GAFF2_hc    H     1.08438  -0.11815   1.24623   0.00000  Uiso   1.00
GAFF2_hc    H     1.11859  -0.07733   1.25428   0.00000  Uiso   1.00
GAFF2_hc    H     1.08236  -0.06353   1.19822   0.00000  Uiso   1.00
GAFF2_hc    H     1.05247  -0.16731   1.16429   0.00000  Uiso   1.00
GAFF2_hc    H     1.04902  -0.14230   1.20770   0.00000  Uiso   1.00
GAFF2_hn    H     0.96708  -0.14144   1.19103   0.00000  Uiso   1.00
GAFF2_ha    H     1.07949  -0.02357   0.98606   0.00000  Uiso   1.00
GAFF2_ca    C     0.90930  -0.06670   1.11312   0.00000  Uiso   1.00
GAFF2_hc    H     1.13181  -0.07331   1.18729   0.00000  Uiso   1.00
GAFF2_hc    H     1.11255  -0.14029   1.17004   0.00000  Uiso   1.00
GAFF2_hc    H     0.86014  -0.05031   1.07575   0.00000  Uiso   1.00
GAFF2_hc    H     0.85123  -0.08509   1.11111   0.00000  Uiso   1.00
GAFF2_hc    H     0.81788  -0.02472   1.13066   0.00000  Uiso   1.00
GAFF2_hc    H     0.85985   0.00316   1.12290   0.00000  Uiso   1.00
GAFF2_hc    H     0.88544   0.09458   1.00474   0.00000  Uiso   1.00
GAFF2_hc    H     1.23300   0.01610   0.89291   0.00000  Uiso   1.00
GAFF2_ca    C     0.92310   0.21331   0.78511   0.00000  Uiso   1.00
GAFF2_ca    C     0.90499   0.21590   0.82248   0.00000  Uiso   1.00
GAFF2_ca    C     1.31752   0.05635   0.74630   0.00000  Uiso   1.00
GAFF2_ca    C     1.06253   0.26304   0.75176   0.00000  Uiso   1.00
GAFF2_ca    C     1.08811   0.27828   0.77936   0.00000  Uiso   1.00
GAFF2_ha    H     1.11600   0.28633   0.76815   0.00000  Uiso   1.00
GAFF2_ha    H     1.06626   0.26074   0.72071   0.00000  Uiso   1.00
GAFF2_ha    H     1.35317   0.10723   0.72129   0.00000  Uiso   1.00
GAFF2_ca    C     0.97600  -0.06181   1.08898   0.00000  Uiso   1.00
GAFF2_ca    C     1.00589  -0.05146   1.06138   0.00000  Uiso   1.00
GAFF2_ca    C     0.99296  -0.02961   1.02889   0.00000  Uiso   1.00
GAFF2_ca    C     0.95357  -0.01639   1.02659   0.00000  Uiso   1.00
GAFF2_ca    C     0.97427   0.02415   0.97513   0.00000  Uiso   1.00
GAFF2_ca    C     0.94495   0.00834   0.99727   0.00000  Uiso   1.00
GAFF2_ca    C     0.92626  -0.02645   1.05390   0.00000  Uiso   1.00
GAFF2_ca    C     0.93661  -0.05203   1.08553   0.00000  Uiso   1.00
GAFF2_ha    H     0.89866  -0.01236   1.04959   0.00000  Uiso   1.00
GAFF2_c3    C     1.11686  -0.06440   1.04499   0.00000  Uiso   1.00
GAFF2_c3    C     1.14417  -0.05663   1.00992   0.00000  Uiso   1.00
GAFF2_c3    C     1.18557  -0.07216   1.01596   0.00000  Uiso   1.00
GAFF2_hc    H     1.19966  -0.07245   0.98749   0.00000  Uiso   1.00
GAFF2_hc    H     1.19908  -0.05347   1.03752   0.00000  Uiso   1.00
GAFF2_hc    H     1.18442  -0.10091   1.02860   0.00000  Uiso   1.00
GAFF2_hc    H     1.13210  -0.07187   0.98491   0.00000  Uiso   1.00
GAFF2_hc    H     1.11427  -0.09573   1.04729   0.00000  Uiso   1.00
GAFF2_hc    H     0.74141   0.10522   0.62786   0.00000  Uiso   1.00
GAFF2_ha    H     1.09472   0.30013   0.83887   0.00000  Uiso   1.00
GAFF2_hc    H     1.26779   0.23832   0.85957   0.00000  Uiso   1.00
GAFF2_os    O     1.08294   0.18111   0.88774   0.00000  Uiso   1.00
GAFF2_c3    C     1.04930   0.20009   0.87308   0.00000  Uiso   1.00
GAFF2_c3    C     1.04959   0.24033   0.89464   0.00000  Uiso   1.00
GAFF2_c3    C     1.03004   0.27426   0.87308   0.00000  Uiso   1.00
GAFF2_hc    H     1.04327   0.29955   0.88688   0.00000  Uiso   1.00
GAFF2_hc    H     1.08035   0.24752   0.89665   0.00000  Uiso   1.00
GAFF2_hc    H     1.03895   0.23602   0.92396   0.00000  Uiso   1.00
GAFF2_hc    H     1.04902   0.20267   0.84174   0.00000  Uiso   1.00
GAFF2_hc    H     1.02228   0.18427   0.87825   0.00000  Uiso   1.00
GAFF2_hc    H     0.70778   0.13138   0.59968   0.00000  Uiso   1.00
GAFF2_hc    H     0.82248   0.12707   0.61406   0.00000  Uiso   1.00
GAFF2_ca    C     1.18844   0.22452   0.67845   0.00000  Uiso   1.00
GAFF2_ha    H     1.20770   0.24752   0.66925   0.00000  Uiso   1.00
GAFF2_hc    H     1.31005   0.17968   0.74601   0.00000  Uiso   1.00
GAFF2_hc    H     0.66350   0.22740   0.66408   0.00000  Uiso   1.00
GAFF2_hc    H     0.93546   0.10349   1.00474   0.00000  Uiso   1.00
GAFF2_hc    H     1.22380   0.14058   1.11859   0.00000  Uiso   1.00
GAFF2_hc    H     1.25686   0.22107   1.13008   0.00000  Uiso   1.00
GAFF2_hc    H     1.13095   0.10292   0.98836   0.00000  Uiso   1.00
GAFF2_hc    H     1.51560  -0.08279   0.92137   0.00000  Uiso   1.00
GAFF2_hc    H     1.14532  -0.02645   1.00101   0.00000  Uiso   1.00
GAFF2_hc    H     1.13066  -0.05491   1.07173   0.00000  Uiso   1.00
GAFF2_c3    C     0.90211   0.20239   0.74889   0.00000  Uiso   1.00
GAFF2_c3    C     0.85928   0.20871   0.75320   0.00000  Uiso   1.00
GAFF2_c3    C     0.84462   0.18744   0.78942   0.00000  Uiso   1.00
GAFF2_c3    C     0.85985   0.20555   0.82679   0.00000  Uiso   1.00
GAFF2_hc    H     0.91304   0.22193   0.72675   0.00000  Uiso   1.00
GAFF2_hc    H     0.90815   0.17220   0.74170   0.00000  Uiso   1.00
GAFF2_hc    H     0.85238   0.23947   0.75636   0.00000  Uiso   1.00
GAFF2_hc    H     0.85669   0.15811   0.79000   0.00000  Uiso   1.00
GAFF2_hc    H     0.84519   0.23257   0.83427   0.00000  Uiso   1.00
GAFF2_hc    H     0.85669   0.18456   0.85008   0.00000  Uiso   1.00
GAFF2_c3    C     0.88458   0.20152   0.95616   0.00000  Uiso   1.00
GAFF2_c3    C     0.93029   0.13770   0.92454   0.00000  Uiso   1.00
GAFF2_c3    C     0.89608   0.16904   0.98318   0.00000  Uiso   1.00
GAFF2_hc    H     0.87451   0.12304   0.94782   0.00000  Uiso   1.00
GAFF2_hc    H     0.85669   0.19836   0.94179   0.00000  Uiso   1.00
GAFF2_hc    H     0.88515   0.22711   0.97485   0.00000  Uiso   1.00
GAFF2_hc    H     0.93402   0.11298   0.90528   0.00000  Uiso   1.00
GAFF2_hc    H     0.95990   0.14403   0.93316   0.00000  Uiso   1.00
GAFF2_hc    H     0.87135   0.16645   1.00273   0.00000  Uiso   1.00
GAFF2_hc    H     0.92195   0.17306   1.00072   0.00000  Uiso   1.00
GAFF2_hc    H     0.94265   0.20986   0.93719   0.00000  Uiso   1.00
GAFF2_c3    C     0.83226   0.19692   0.71870   0.00000  Uiso   1.00
GAFF2_c3    C     0.80092   0.18629   0.78252   0.00000  Uiso   1.00
GAFF2_c3    C     0.79833   0.17479   0.73911   0.00000  Uiso   1.00
GAFF2_hc    H     0.82392   0.22193   0.70088   0.00000  Uiso   1.00
GAFF2_hc    H     0.84749   0.17680   0.69944   0.00000  Uiso   1.00
GAFF2_hc    H     0.78683   0.21389   0.78942   0.00000  Uiso   1.00
GAFF2_hc    H     0.79000   0.16559   0.80351   0.00000  Uiso   1.00
GAFF2_hc    H     0.80523   0.14403   0.73882   0.00000  Uiso   1.00
GAFF2_o     O     0.75377   0.11815   0.69656   0.00000  Uiso   1.00
GAFF2_hc    H     0.74486   0.21877   0.63188   0.00000  Uiso   1.00
GAFF2_hc    H     0.70289   0.20584   0.61521   0.00000  Uiso   1.00
GAFF2_ca    C     0.92224  -0.09113   1.14417   0.00000  Uiso   1.00
GAFF2_ha    H     0.90298  -0.09976   1.16746   0.00000  Uiso   1.00
GAFF2_os    O     0.91016   0.02587   0.99123   0.00000  Uiso   1.00
GAFF2_c3    C     1.38968   0.10004   0.77792   0.00000  Uiso   1.00
GAFF2_hc    H     1.36553   0.12045   0.77878   0.00000  Uiso   1.00
GAFF2_hc    H     1.40607   0.10579   0.75147   0.00000  Uiso   1.00
GAFF2_c3    C     1.31407  -0.11729   0.82737   0.00000  Uiso   1.00
GAFF2_hc    H     1.33880  -0.13655   0.82277   0.00000  Uiso   1.00
GAFF2_hc    H     1.28992  -0.12592   0.80868   0.00000  Uiso   1.00
GAFF2_hc    H     1.30545  -0.12045   0.85784   0.00000  Uiso   1.00
GAFF2_c3    C     0.91534   0.05778   0.96565   0.00000  Uiso   1.00
GAFF2_hc    H     0.89234   0.05750   0.94409   0.00000  Uiso   1.00
GAFF2_os    O     0.91390   0.16846   0.90269   0.00000  Uiso   1.00
GAFF2_hc    H     1.13353  -0.12017   1.23502   0.00000  Uiso   1.00
GAFF2_c3    C     1.31321   0.20066   0.87480   0.00000  Uiso   1.00
GAFF2_c3    C     1.33305   0.20267   0.83599   0.00000  Uiso   1.00
GAFF2_c3    C     1.34225   0.22395   0.89924   0.00000  Uiso   1.00
GAFF2_c3    C     1.38019   0.20842   0.88831   0.00000  Uiso   1.00
GAFF2_c3    C     1.37732   0.20785   0.84490   0.00000  Uiso   1.00
GAFF2_hc    H     1.31695   0.17076   0.88429   0.00000  Uiso   1.00
GAFF2_hc    H     1.32270   0.18255   0.81386   0.00000  Uiso   1.00
GAFF2_hc    H     1.32270   0.22941   0.82277   0.00000  Uiso   1.00
GAFF2_hc    H     1.34081   0.25413   0.88946   0.00000  Uiso   1.00
GAFF2_hc    H     1.38537   0.18054   0.90269   0.00000  Uiso   1.00
GAFF2_hc    H     1.40463   0.22510   0.89953   0.00000  Uiso   1.00
GAFF2_hc    H     1.38479   0.23688   0.83484   0.00000  Uiso   1.00
GAFF2_c3    C     1.15538   0.29639   0.63447   0.00000  Uiso   1.00
GAFF2_hc    H     1.14590   0.32284   0.64884   0.00000  Uiso   1.00
GAFF2_hc    H     1.15538   0.30157   0.60342   0.00000  Uiso   1.00
GAFF2_hc    H     1.18614   0.29639   0.64079   0.00000  Uiso   1.00
GAFF2_os    O     1.41469   0.11212   0.80983   0.00000  Uiso   1.00
GAFF2_c3    C     1.40118   0.13885   0.83944   0.00000  Uiso   1.00
GAFF2_c3    C     1.40607   0.18111   0.82593   0.00000  Uiso   1.00
GAFF2_hc    H     1.37128   0.13253   0.84749   0.00000  Uiso   1.00
GAFF2_hc    H     1.42015   0.13282   0.86417   0.00000  Uiso   1.00
GAFF2_hc    H     1.43539   0.19175   0.83111   0.00000  Uiso   1.00
GAFF2_hc    H     1.40175   0.17939   0.79488   0.00000  Uiso   1.00
GAFF2_hc    H     1.27296   0.15006   1.11974   0.00000  Uiso   1.00
GAFF2_c3    C     1.10824   0.15409   0.95731   0.00000  Uiso   1.00
GAFF2_hc    H     1.09904   0.13655   0.93259   0.00000  Uiso   1.00
GAFF2_hc    H     1.08438   0.17508   0.95760   0.00000  Uiso   1.00
GAFF2_c3    C     1.35633   0.07072   0.91102   0.00000  Uiso   1.00
GAFF2_hc    H     1.35604   0.03910   0.91045   0.00000  Uiso   1.00
GAFF2_hc    H     1.35547   0.08078   0.88113   0.00000  Uiso   1.00
GAFF2_c3    C     1.45695   0.03910   0.97197   0.00000  Uiso   1.00
GAFF2_hc    H     1.48340   0.05663   0.97140   0.00000  Uiso   1.00
GAFF2_c3    C     1.22984  -0.01322   0.75665   0.00000  Uiso   1.00
GAFF2_hc    H     1.23243  -0.03852   0.73767   0.00000  Uiso   1.00
GAFF2_hc    H     1.22093  -0.02300   0.78540   0.00000  Uiso   1.00
GAFF2_hc    H     0.85525  -0.02932   1.16315   0.00000  Uiso   1.00
GAFF2_c3    C     0.90528   0.22653   0.60342   0.00000  Uiso   1.00
GAFF2_hc    H     0.88975   0.25212   0.61377   0.00000  Uiso   1.00
GAFF2_hc    H     0.90269   0.22510   0.57180   0.00000  Uiso   1.00
GAFF2_c3    C     1.41584   0.20986   1.03579   0.00000  Uiso   1.00
GAFF2_hc    H     1.42504   0.18801   1.01509   0.00000  Uiso   1.00
GAFF2_hc    H     1.42360   0.23890   1.02544   0.00000  Uiso   1.00
GAFF2_os    O     1.11772   0.12994   0.70174   0.00000  Uiso   1.00
GAFF2_c3    C     0.94696   0.08251   0.64252   0.00000  Uiso   1.00
GAFF2_hc    H     0.96536   0.05692   0.64108   0.00000  Uiso   1.00
GAFF2_hc    H     0.92741   0.07934   0.61780   0.00000  Uiso   1.00
GAFF2_hc    H     0.92914   0.07704   0.66810   0.00000  Uiso   1.00
GAFF2_c3    C     1.50093   0.07992   1.11830   0.00000  Uiso   1.00
GAFF2_hc    H     1.52278   0.09659   1.10277   0.00000  Uiso   1.00
GAFF2_hc    H     1.51272   0.05117   1.12462   0.00000  Uiso   1.00
GAFF2_c3    C     0.98376   0.27196   0.87911   0.00000  Uiso   1.00
GAFF2_hc    H     0.97082   0.30070   0.88084   0.00000  Uiso   1.00
GAFF2_hc    H     0.97801   0.25758   0.90671   0.00000  Uiso   1.00
GAFF2_c3    C     1.46270  -0.00201   0.99209   0.00000  Uiso   1.00
GAFF2_c3    C     1.48972  -0.02789   0.96795   0.00000  Uiso   1.00
GAFF2_hc    H     1.43481  -0.01610   0.99698   0.00000  Uiso   1.00
GAFF2_hc    H     1.47880  -0.00316   1.01912   0.00000  Uiso   1.00
GAFF2_hc    H     1.48771  -0.05721   0.97945   0.00000  Uiso   1.00
GAFF2_hc    H     1.51818  -0.01725   0.97715   0.00000  Uiso   1.00
GAFF2_c3    C     1.09271  -0.09976   1.12175   0.00000  Uiso   1.00
GAFF2_hc    H     1.10881  -0.12132   1.10479   0.00000  Uiso   1.00
GAFF2_hc    H     1.10910  -0.07331   1.12721   0.00000  Uiso   1.00
GAFF2_c3    C     0.95788   0.05491   0.94926   0.00000  Uiso   1.00
GAFF2_hc    H     0.97513   0.08107   0.95271   0.00000  Uiso   1.00
GAFF2_hc    H     0.95645   0.04887   0.91821   0.00000  Uiso   1.00
GAFF2_hc    H     1.30372   0.09861   0.85295   0.00000  Uiso   1.00
GAFF2_oh    O     1.37329   0.19146   0.69800   0.00000  Uiso   1.00
GAFF2_o     O     1.32643   0.20785   0.66063   0.00000  Uiso   1.00
GAFF2_ho    H     1.37646   0.18715   0.67040   0.00000  Uiso   1.00
GAFF2_ca    C     1.25370   0.05433   0.71353   0.00000  Uiso   1.00
GAFF2_ha    H     1.30401   0.12965   0.67960   0.00000  Uiso   1.00
GAFF2_c3    C     1.27239   0.21331   0.87854   0.00000  Uiso   1.00
GAFF2_ca    C     1.12117   0.19664   0.88141   0.00000  Uiso   1.00
GAFF2_ha    H     1.10910   0.21302   0.82133   0.00000  Uiso   1.00
GAFF2_ha    H     1.17004   0.24637   0.81012   0.00000  Uiso   1.00
GAFF2_ha    H     1.21317   0.25672   0.86647   0.00000  Uiso   1.00
GAFF2_ca    C     0.29495   0.70921   0.16674   0.00000  Uiso   1.00
GAFF2_ca    C     0.30099   0.71353   0.12649   0.00000  Uiso   1.00
GAFF2_ca    C     0.26304   0.77246   0.12707   0.00000  Uiso   1.00
GAFF2_ca    C     0.28662   0.74716   0.10637   0.00000  Uiso   1.00
GAFF2_ca    C     0.29352   0.75147   0.06756   0.00000  Uiso   1.00
GAFF2_ca    C     0.25298   0.80811   0.10867   0.00000  Uiso   1.00
GAFF2_ca    C     0.31910   0.68478   0.10551   0.00000  Uiso   1.00
GAFF2_ca    C     0.32687   0.68995   0.06727   0.00000  Uiso   1.00
GAFF2_ca    C     0.25672   0.81184   0.06871   0.00000  Uiso   1.00
GAFF2_ca    C     0.27742   0.78425   0.04887   0.00000  Uiso   1.00
GAFF2_ca    C     0.31422   0.72330   0.04743   0.00000  Uiso   1.00
GAFF2_ca    C     0.32169   0.72876   0.00920   0.00000  Uiso   1.00
GAFF2_ca    C     0.28662   0.79000   0.01035   0.00000  Uiso   1.00
GAFF2_ca    C     0.30789   0.76269  -0.01064   0.00000  Uiso   1.00
GAFF2_ca    C     0.27109   0.73537   0.18571   0.00000  Uiso   1.00
GAFF2_c2    C     0.34814   0.65718   0.05606   0.00000  Uiso   1.00
GAFF2_c2    C     0.33750   0.65057   0.11844   0.00000  Uiso   1.00
GAFF2_na    N     0.35590   0.63159   0.08739   0.00000  Uiso   1.00
GAFF2_hn    H     0.38034   0.61607   0.08797   0.00000  Uiso   1.00
GAFF2_ca    C     0.25385   0.76613   0.16645   0.00000  Uiso   1.00
GAFF2_ha    H     0.27972   0.81731  -0.00374   0.00000  Uiso   1.00
GAFF2_ha    H     0.24723   0.83858   0.05520   0.00000  Uiso   1.00
GAFF2_ha    H     0.33635   0.70720  -0.00862   0.00000  Uiso   1.00
GAFF2_ha    H     0.30645   0.68305   0.17996   0.00000  Uiso   1.00
GAFF2_h4    H     0.37200   0.65660   0.03594   0.00000  Uiso   1.00
GAFF2_h4    H     0.33750   0.63849   0.14748   0.00000  Uiso   1.00
GAFF2_ha    H     0.26621   0.72790   0.21590   0.00000  Uiso   1.00
GAFF2_c3    C     0.22280   0.78942   0.18514   0.00000  Uiso   1.00
GAFF2_c3    C     0.20152   0.81961   0.16070   0.00000  Uiso   1.00
GAFF2_c3    C     0.22998   0.83800   0.13368   0.00000  Uiso   1.00
GAFF2_c3    C     0.31652   0.77016  -0.05347   0.00000  Uiso   1.00
GAFF2_c3    C     0.35561   0.78137  -0.06411   0.00000  Uiso   1.00
GAFF2_c3    C     0.37430   0.81616  -0.04053   0.00000  Uiso   1.00
GAFF2_hc    H     0.37430   0.75636  -0.05836   0.00000  Uiso   1.00
GAFF2_hc    H     0.29697   0.79345  -0.06210   0.00000  Uiso   1.00
GAFF2_hc    H     0.30358   0.74630  -0.06957   0.00000  Uiso   1.00
GAFF2_hc    H     0.25097   0.85554   0.14949   0.00000  Uiso   1.00
GAFF2_hc    H     0.17766   0.80552   0.14489   0.00000  Uiso   1.00
GAFF2_hc    H     0.19002   0.84059   0.18140   0.00000  Uiso   1.00
GAFF2_hc    H     0.23688   0.80523   0.20871   0.00000  Uiso   1.00
GAFF2_hc    H     0.20296   0.76700   0.19520   0.00000  Uiso   1.00
GAFF2_ca    C     0.38235   0.86848   0.22912   0.00000  Uiso   1.00
GAFF2_ca    C     0.34239   0.87451   0.24033   0.00000  Uiso   1.00
GAFF2_ca    C     0.33233   0.87250   0.27914   0.00000  Uiso   1.00
GAFF2_ca    C     0.31508   0.88946   0.21187   0.00000  Uiso   1.00
GAFF2_ca    C     0.32773   0.89320   0.17220   0.00000  Uiso   1.00
GAFF2_ca    C     0.36539   0.88285   0.16156   0.00000  Uiso   1.00
GAFF2_ca    C     0.39442   0.87336   0.18945   0.00000  Uiso   1.00
GAFF2_ca    C     0.29467   0.88285   0.29208   0.00000  Uiso   1.00
GAFF2_ca    C     0.27943   0.90211   0.22423   0.00000  Uiso   1.00
GAFF2_ca    C     0.26851   0.89953   0.26592   0.00000  Uiso   1.00
GAFF2_ca    C     0.21044   0.93431   0.24867   0.00000  Uiso   1.00
GAFF2_ca    C     0.25385   0.92109   0.19635   0.00000  Uiso   1.00
GAFF2_ca    C     0.35763   0.85583   0.30530   0.00000  Uiso   1.00
GAFF2_ca    C     0.28633   0.88314   0.33060   0.00000  Uiso   1.00
GAFF2_ca    C     0.24982   0.89579   0.34325   0.00000  Uiso   1.00
GAFF2_ca    C     0.22251   0.91332   0.31882   0.00000  Uiso   1.00
GAFF2_ca    C     0.23372   0.91562   0.27857   0.00000  Uiso   1.00
GAFF2_h4    H     0.18485   0.95041   0.25672   0.00000  Uiso   1.00
GAFF2_ca    C     0.29898   0.90700   0.14460   0.00000  Uiso   1.00
GAFF2_ca    C     0.26333   0.92051   0.15754   0.00000  Uiso   1.00
GAFF2_ca    C     0.39615   0.84692   0.29495   0.00000  Uiso   1.00
GAFF2_nb    N     0.22193   0.93661   0.20986   0.00000  Uiso   1.00
GAFF2_ca    C     0.40822   0.85123   0.25614   0.00000  Uiso   1.00
GAFF2_ha    H     0.43582   0.83915   0.24723   0.00000  Uiso   1.00
GAFF2_c3    C     0.23085   0.93316   0.12937   0.00000  Uiso   1.00
GAFF2_c3    C     0.19721   0.90010   0.12649   0.00000  Uiso   1.00
GAFF2_hc    H     0.17651   0.91447   0.10752   0.00000  Uiso   1.00
GAFF2_hc    H     0.18140   0.89694   0.15380   0.00000  Uiso   1.00
GAFF2_hc    H     0.21935   0.96047   0.14058   0.00000  Uiso   1.00
GAFF2_hc    H     0.24206   0.94035   0.10062   0.00000  Uiso   1.00
GAFF2_os    O     0.21015   0.86445   0.11039   0.00000  Uiso   1.00
GAFF2_ca    C     0.31479   0.86905   0.35791   0.00000  Uiso   1.00
GAFF2_ca    C     0.30530   0.86417   0.39644   0.00000  Uiso   1.00
GAFF2_ca    C     0.26764   0.87250   0.40966   0.00000  Uiso   1.00
GAFF2_c3    C     0.25672   0.86819   0.45106   0.00000  Uiso   1.00
GAFF2_c3    C     0.26419   0.90355   0.47635   0.00000  Uiso   1.00
GAFF2_c3    C     0.25844   0.89291   0.52149   0.00000  Uiso   1.00
GAFF2_c     C     0.26276   0.92770   0.54909   0.00000  Uiso   1.00
GAFF2_hc    H     0.22998   0.87998   0.52724   0.00000  Uiso   1.00
GAFF2_hc    H     0.29438   0.91217   0.47262   0.00000  Uiso   1.00
GAFF2_hc    H     0.24407   0.92684   0.46974   0.00000  Uiso   1.00
GAFF2_hc    H     0.27426   0.84548   0.46399   0.00000  Uiso   1.00
GAFF2_hc    H     0.22653   0.85899   0.44933   0.00000  Uiso   1.00
GAFF2_ha    H     0.32572   0.85094   0.41627   0.00000  Uiso   1.00
GAFF2_c3    C     0.42633   0.83513   0.32370   0.00000  Uiso   1.00
GAFF2_c3    C     0.45594   0.86762   0.33520   0.00000  Uiso   1.00
GAFF2_c3    C     0.45221   0.90700   0.31422   0.00000  Uiso   1.00
GAFF2_os    O     0.41685   0.92597   0.32140   0.00000  Uiso   1.00
GAFF2_c3    C     0.40448   0.93402   0.35878   0.00000  Uiso   1.00
GAFF2_c3    C     0.36654   0.95587   0.35763   0.00000  Uiso   1.00
GAFF2_ca    C     0.38292   0.97801   0.42576   0.00000  Uiso   1.00
GAFF2_hc    H     0.34469   0.93517   0.34814   0.00000  Uiso   1.00
GAFF2_hc    H     0.36855   0.98031   0.33779   0.00000  Uiso   1.00
GAFF2_hc    H     0.40017   0.90671   0.37401   0.00000  Uiso   1.00
GAFF2_hc    H     0.45738   0.90758   0.28317   0.00000  Uiso   1.00
GAFF2_hc    H     0.47492   0.92281   0.33003   0.00000  Uiso   1.00
GAFF2_hc    H     0.45221   0.87049   0.36654   0.00000  Uiso   1.00
GAFF2_hc    H     0.48584   0.85755   0.33348   0.00000  Uiso   1.00
GAFF2_hc    H     0.44099   0.80897   0.31364   0.00000  Uiso   1.00
GAFF2_hc    H     0.41052   0.82593   0.34958   0.00000  Uiso   1.00
GAFF2_c3    C     0.37746   0.88199   0.11902   0.00000  Uiso   1.00
GAFF2_c3    C     0.34268   0.87394   0.09314   0.00000  Uiso   1.00
GAFF2_c3    C     0.34843   0.86733   0.04772   0.00000  Uiso   1.00
GAFF2_hc    H     0.32025   0.86273   0.03421   0.00000  Uiso   1.00
GAFF2_hc    H     0.36366   0.84002   0.04312   0.00000  Uiso   1.00
GAFF2_hc    H     0.33434   0.84634   0.10637   0.00000  Uiso   1.00
GAFF2_hc    H     0.40075   0.86302   0.10924   0.00000  Uiso   1.00
GAFF2_hc    H     0.38724   0.91074   0.11068   0.00000  Uiso   1.00
GAFF2_c3    C     0.41598   0.87854  -0.04255   0.00000  Uiso   1.00
GAFF2_c3    C     0.36884   0.90096   0.02329   0.00000  Uiso   1.00
GAFF2_ss    S     0.41915   0.88688   0.01006   0.00000  Uiso   1.00
GAFF2_hc    H     0.36941   0.92626   0.04226   0.00000  Uiso   1.00
GAFF2_c3    C     0.41282   0.83513  -0.05318   0.00000  Uiso   1.00
GAFF2_c     C     0.44991   0.81156  -0.04801   0.00000  Uiso   1.00
GAFF2_c3    C     0.45508   0.77361  -0.02875   0.00000  Uiso   1.00
GAFF2_hc    H     0.47089   0.75435  -0.04801   0.00000  Uiso   1.00
GAFF2_hc    H     0.42720   0.75866  -0.02932   0.00000  Uiso   1.00
GAFF2_hc    H     0.40995   0.83599  -0.08481   0.00000  Uiso   1.00
GAFF2_ca    C     0.50050   1.01164   0.50769   0.00000  Uiso   1.00
GAFF2_ca    C     0.43525   0.99928   0.48555   0.00000  Uiso   1.00
GAFF2_ca    C     0.46054   1.01049   0.51344   0.00000  Uiso   1.00
GAFF2_ca    C     0.44531   1.02400   0.54966   0.00000  Uiso   1.00
GAFF2_ca    C     0.39471   0.99698   0.49360   0.00000  Uiso   1.00
GAFF2_ca    C     0.52350   1.02228   0.54018   0.00000  Uiso   1.00
GAFF2_ca    C     0.50884   1.02717   0.57640   0.00000  Uiso   1.00
GAFF2_ca    C     0.38264   1.00762   0.53098   0.00000  Uiso   1.00
GAFF2_ca    C     0.40707   1.02458   0.55685   0.00000  Uiso   1.00
GAFF2_ca    C     0.47032   1.03090   0.58215   0.00000  Uiso   1.00
GAFF2_ca    C     0.48958   0.98261   0.44387   0.00000  Uiso   1.00
GAFF2_c2    C     0.53874   1.03550   0.60055   0.00000  Uiso   1.00
GAFF2_c2    C     0.56174   1.02429   0.54420   0.00000  Uiso   1.00
GAFF2_na    N     0.57410   1.03177   0.58358   0.00000  Uiso   1.00
GAFF2_hn    H     0.59336   1.01596   0.59853   0.00000  Uiso   1.00
GAFF2_ca    C     0.44962   0.98232   0.45019   0.00000  Uiso   1.00
GAFF2_ca    C     0.42346   0.97111   0.42001   0.00000  Uiso   1.00
GAFF2_ca    C     0.31623   0.98232   0.40075   0.00000  Uiso   1.00
GAFF2_ca    C     0.30617   1.00187   0.43582   0.00000  Uiso   1.00
GAFF2_ca    C     0.33031   1.00446   0.46658   0.00000  Uiso   1.00
GAFF2_ca    C     0.51459   1.00014   0.47118   0.00000  Uiso   1.00
GAFF2_ha    H     0.39557   1.02889   0.58588   0.00000  Uiso   1.00
GAFF2_ha    H     0.45738   1.03665   0.61032   0.00000  Uiso   1.00
GAFF2_h4    H     0.58358   1.00647   0.53011   0.00000  Uiso   1.00
GAFF2_ha    H     0.29610   0.97571   0.37746   0.00000  Uiso   1.00
GAFF2_ha    H     0.50252   0.97111   0.41771   0.00000  Uiso   1.00
GAFF2_c3    C     0.53644   1.03349   0.64539   0.00000  Uiso   1.00
GAFF2_c3    C     0.53500   0.99181   0.65948   0.00000  Uiso   1.00
GAFF2_c3    C     0.57266   0.96996   0.66005   0.00000  Uiso   1.00
GAFF2_c     C     0.57899   0.94179   0.62872   0.00000  Uiso   1.00
GAFF2_o     O     0.60658   0.94466   0.60860   0.00000  Uiso   1.00
GAFF2_c3    C     0.55714   0.90298   0.62814   0.00000  Uiso   1.00
GAFF2_c3    C     0.53213   0.89838   0.59221   0.00000  Uiso   1.00
GAFF2_c3    C     0.51545   0.85583   0.58991   0.00000  Uiso   1.00
GAFF2_hc    H     0.48584   0.86072   0.57985   0.00000  Uiso   1.00
GAFF2_hc    H     0.54765   0.90729   0.56605   0.00000  Uiso   1.00
GAFF2_hc    H     0.50884   0.91936   0.58933   0.00000  Uiso   1.00
GAFF2_hc    H     0.57985   0.88113   0.62786   0.00000  Uiso   1.00
GAFF2_hc    H     0.59652   0.99066   0.66063   0.00000  Uiso   1.00
GAFF2_hc    H     0.51804   0.97398   0.63964   0.00000  Uiso   1.00
GAFF2_hc    H     0.50913   1.04815   0.65143   0.00000  Uiso   1.00
GAFF2_hc    H     0.55800   1.05017   0.66149   0.00000  Uiso   1.00
GAFF2_ca    C     0.51574   0.79201   0.62814   0.00000  Uiso   1.00
GAFF2_ca    C     0.51143   0.76958   0.66149   0.00000  Uiso   1.00
GAFF2_ca    C     0.50683   0.78856   0.69743   0.00000  Uiso   1.00
GAFF2_ca    C     0.51775   0.83427   0.62958   0.00000  Uiso   1.00
GAFF2_ca    C     0.49648   0.72416   0.72560   0.00000  Uiso   1.00
GAFF2_ca    C     0.51775   0.85267   0.66552   0.00000  Uiso   1.00
GAFF2_ca    C     0.49878   0.76498   0.73077   0.00000  Uiso   1.00
GAFF2_ca    C     0.51401   0.73221   0.59020   0.00000  Uiso   1.00
GAFF2_ca    C     0.51804   0.77246   0.59048   0.00000  Uiso   1.00
GAFF2_ca    C     0.52465   0.79172   0.55484   0.00000  Uiso   1.00
GAFF2_ca    C     0.51660   0.71238   0.55484   0.00000  Uiso   1.00
GAFF2_ca    C     0.52034   0.73106   0.51948   0.00000  Uiso   1.00
GAFF2_ca    C     0.52551   0.76958   0.51746   0.00000  Uiso   1.00
GAFF2_ca    C     0.51114   0.71094   0.62326   0.00000  Uiso   1.00
GAFF2_ha    H     0.51574   0.71640   0.49217   0.00000  Uiso   1.00
GAFF2_ca    C     0.48757   0.78396   0.76383   0.00000  Uiso   1.00
GAFF2_ca    C     0.48843   0.82363   0.76930   0.00000  Uiso   1.00
GAFF2_nb    N     0.50395   0.70634   0.69254   0.00000  Uiso   1.00
GAFF2_ca    C     0.50740   0.83024   0.69858   0.00000  Uiso   1.00
GAFF2_ca    C     0.49792   0.84720   0.73537   0.00000  Uiso   1.00
GAFF2_ca    C     0.50884   0.72819   0.65977   0.00000  Uiso   1.00
GAFF2_c3    C     0.47549   0.76585   0.80264   0.00000  Uiso   1.00
GAFF2_c3    C     0.45537   0.79977   0.82564   0.00000  Uiso   1.00
GAFF2_c3    C     0.41110   0.79632   0.82277   0.00000  Uiso   1.00
GAFF2_hc    H     0.40132   0.76613   0.82449   0.00000  Uiso   1.00
GAFF2_hc    H     0.39730   0.81328   0.84519   0.00000  Uiso   1.00
GAFF2_hc    H     0.46256   0.80264   0.85612   0.00000  Uiso   1.00
GAFF2_hc    H     0.45623   0.74112   0.79891   0.00000  Uiso   1.00
GAFF2_hc    H     0.49878   0.75205   0.81932   0.00000  Uiso   1.00
GAFF2_h4    H     0.49418   0.70461   0.75032   0.00000  Uiso   1.00
GAFF2_ha    H     0.50913   0.67989   0.62067   0.00000  Uiso   1.00
GAFF2_ha    H     0.51056   0.68190   0.55167   0.00000  Uiso   1.00
GAFF2_ha    H     0.49102   0.87768   0.73624   0.00000  Uiso   1.00
GAFF2_c3    C     0.52293   0.79057   0.47722   0.00000  Uiso   1.00
GAFF2_c3    C     0.51488   0.76728   0.44013   0.00000  Uiso   1.00
GAFF2_c3    C     0.50999   0.79143   0.40276   0.00000  Uiso   1.00
GAFF2_hc    H     0.50597   0.77275   0.37746   0.00000  Uiso   1.00
GAFF2_hc    H     0.48239   0.80696   0.40333   0.00000  Uiso   1.00
GAFF2_hc    H     0.53730   0.74544   0.43640   0.00000  Uiso   1.00
GAFF2_hc    H     0.48670   0.75349   0.44444   0.00000  Uiso   1.00
GAFF2_hc    H     0.49820   0.80983   0.48067   0.00000  Uiso   1.00
GAFF2_os    O     0.39701   0.80983   0.78511   0.00000  Uiso   1.00
GAFF2_c3    C     0.35993   0.79718   0.77102   0.00000  Uiso   1.00
GAFF2_c3    C     0.36136   0.75349   0.75636   0.00000  Uiso   1.00
GAFF2_c3    C     0.38867   0.74572   0.72273   0.00000  Uiso   1.00
GAFF2_c3    C     0.39557   0.70030   0.71525   0.00000  Uiso   1.00
GAFF2_hc    H     0.37142   0.68305   0.72618   0.00000  Uiso   1.00
GAFF2_hc    H     0.42231   0.69082   0.72905   0.00000  Uiso   1.00
GAFF2_hc    H     0.41541   0.76039   0.73077   0.00000  Uiso   1.00
GAFF2_hc    H     0.36625   0.73192   0.77907   0.00000  Uiso   1.00
GAFF2_hc    H     0.33290   0.74400   0.74630   0.00000  Uiso   1.00
GAFF2_hc    H     0.33721   0.80006   0.79287   0.00000  Uiso   1.00
GAFF2_hc    H     0.35216   0.81673   0.74745   0.00000  Uiso   1.00
GAFF2_ca    C     0.39787   0.75291   0.53414   0.00000  Uiso   1.00
GAFF2_ca    C     0.40765   0.71784   0.55052   0.00000  Uiso   1.00
GAFF2_ca    C     0.38264   0.78252   0.56001   0.00000  Uiso   1.00
GAFF2_ca    C     0.38695   0.75492   0.41081   0.00000  Uiso   1.00
GAFF2_ca    C     0.38062   0.75866   0.37142   0.00000  Uiso   1.00
GAFF2_ca    C     0.40276   0.73394   0.34785   0.00000  Uiso   1.00
GAFF2_ca    C     0.40190   0.70950   0.59135   0.00000  Uiso   1.00
GAFF2_ca    C     0.37775   0.77447   0.59940   0.00000  Uiso   1.00
GAFF2_ca    C     0.38724   0.73940   0.61463   0.00000  Uiso   1.00
GAFF2_ca    C     0.42576   0.69024   0.52753   0.00000  Uiso   1.00
GAFF2_ca    C     0.40995   0.67184   0.60716   0.00000  Uiso   1.00
GAFF2_ca    C     0.40563   0.66695   0.64683   0.00000  Uiso   1.00
GAFF2_ca    C     0.39672   0.69743   0.67069   0.00000  Uiso   1.00
GAFF2_ca    C     0.38379   0.73336   0.65431   0.00000  Uiso   1.00
GAFF2_hc    H     0.43697   0.80581   0.46572   0.00000  Uiso   1.00
GAFF2_ca    C     0.43093   0.69714   0.48728   0.00000  Uiso   1.00
GAFF2_ca    C     0.41713   0.73049   0.46974   0.00000  Uiso   1.00
GAFF2_ca    C     0.42633   0.64223   0.58301   0.00000  Uiso   1.00
GAFF2_ca    C     0.43611   0.65373   0.54391   0.00000  Uiso   1.00
GAFF2_ca    C     0.45106   0.66868   0.46371   0.00000  Uiso   1.00
GAFF2_ca    C     0.46313   0.63246   0.48009   0.00000  Uiso   1.00
GAFF2_ca    C     0.45508   0.62699   0.51833   0.00000  Uiso   1.00
GAFF2_ca    C     0.41713   0.73221   0.42835   0.00000  Uiso   1.00
GAFF2_ca    C     0.43726   0.70663   0.40448   0.00000  Uiso   1.00
GAFF2_ca    C     0.45882   0.67644   0.42288   0.00000  Uiso   1.00
GAFF2_c3    C     0.48354   0.60112   0.45508   0.00000  Uiso   1.00
GAFF2_hc    H     0.46284   0.58157   0.44128   0.00000  Uiso   1.00
GAFF2_hc    H     0.50165   0.58301   0.47348   0.00000  Uiso   1.00
GAFF2_ca    C     0.40765   0.76182   0.49504   0.00000  Uiso   1.00
GAFF2_ha    H     0.46543   0.59853   0.52724   0.00000  Uiso   1.00
GAFF2_ha    H     0.36625   0.79776   0.61693   0.00000  Uiso   1.00
GAFF2_ha    H     0.41340   0.64079   0.66207   0.00000  Uiso   1.00
GAFF2_c3    C     0.43984   0.60227   0.60112   0.00000  Uiso   1.00
GAFF2_c3    C     0.48325   0.60055   0.61061   0.00000  Uiso   1.00
GAFF2_hc    H     0.50165   0.61377   0.58847   0.00000  Uiso   1.00
GAFF2_hc    H     0.43410   0.57812   0.58157   0.00000  Uiso   1.00
GAFF2_c3    C     0.51315   0.61923   0.42748   0.00000  Uiso   1.00
GAFF2_os    O     0.53241   0.58732   0.40678   0.00000  Uiso   1.00
GAFF2_c3    C     0.55972   0.59710   0.37631   0.00000  Uiso   1.00
GAFF2_c3    C     0.59537   0.61693   0.39212   0.00000  Uiso   1.00
GAFF2_c3    C     0.63016   0.62412   0.36395   0.00000  Uiso   1.00
GAFF2_hc    H     0.63706   0.59853   0.34641   0.00000  Uiso   1.00
GAFF2_hc    H     0.65747   0.62814   0.37919   0.00000  Uiso   1.00
GAFF2_hc    H     0.58330   0.64252   0.40678   0.00000  Uiso   1.00
GAFF2_hc    H     0.60831   0.60026   0.41541   0.00000  Uiso   1.00
GAFF2_hc    H     0.54190   0.61205   0.35475   0.00000  Uiso   1.00
GAFF2_hc    H     0.57036   0.57007   0.36424   0.00000  Uiso   1.00
GAFF2_ca    C     0.33664   0.71381   0.29007   0.00000  Uiso   1.00
GAFF2_ca    C     0.35734   0.69915   0.26046   0.00000  Uiso   1.00
GAFF2_ca    C     0.38091   0.71180   0.19290   0.00000  Uiso   1.00
GAFF2_ca    C     0.38321   0.74141   0.16588   0.00000  Uiso   1.00
GAFF2_ca    C     0.36223   0.72301   0.22826   0.00000  Uiso   1.00
GAFF2_ca    C     0.34871   0.75952   0.22510   0.00000  Uiso   1.00
GAFF2_ss    S     0.36424   0.78683   0.18427   0.00000  Uiso   1.00
GAFF2_ca    C     0.39845   0.67644   0.18859   0.00000  Uiso   1.00
GAFF2_ca    C     0.41570   0.66839   0.15294   0.00000  Uiso   1.00
GAFF2_c3    C     0.42748   0.62527   0.14920   0.00000  Uiso   1.00
GAFF2_hc    H     0.43007   0.61780   0.11873   0.00000  Uiso   1.00
GAFF2_hc    H     0.40592   0.60457   0.15955   0.00000  Uiso   1.00
GAFF2_c3    C     0.46744   0.61636   0.16904   0.00000  Uiso   1.00
GAFF2_c3    C     0.54707   0.59307   0.17594   0.00000  Uiso   1.00
GAFF2_c3    C     0.58358   0.59393   0.20555   0.00000  Uiso   1.00
GAFF2_c3    C     0.47664   0.76355   0.21848   0.00000  Uiso   1.00
GAFF2_c3    C     0.51401   0.78798   0.20900   0.00000  Uiso   1.00
GAFF2_ca    C     0.61578   0.78080   0.36424   0.00000  Uiso   1.00
GAFF2_ca    C     0.63591   0.75349   0.38781   0.00000  Uiso   1.00
GAFF2_ca    C     0.61463   0.69886   0.34699   0.00000  Uiso   1.00
GAFF2_ca    C     0.63159   0.71468   0.38034   0.00000  Uiso   1.00
GAFF2_ca    C     0.61866   0.65775   0.33549   0.00000  Uiso   1.00
GAFF2_ca    C     0.60888   0.82162   0.37229   0.00000  Uiso   1.00
GAFF2_ca    C     0.58732   0.84289   0.34440   0.00000  Uiso   1.00
GAFF2_ca    C     0.57151   0.82651   0.31364   0.00000  Uiso   1.00
GAFF2_ca    C     0.55139   0.85353   0.29409   0.00000  Uiso   1.00
GAFF2_c2    C     0.57927   0.88026   0.34469   0.00000  Uiso   1.00
GAFF2_na    N     0.55771   0.89004   0.31019   0.00000  Uiso   1.00
GAFF2_c3    C     0.58617   0.90556   0.37775   0.00000  Uiso   1.00
GAFF2_c3    C     0.59537   0.88084   0.41570   0.00000  Uiso   1.00
GAFF2_c3    C     0.61003   0.90585   0.45048   0.00000  Uiso   1.00
GAFF2_c3    C     0.58301   0.90240   0.48527   0.00000  Uiso   1.00
GAFF2_hc    H     0.58014   0.87193   0.49303   0.00000  Uiso   1.00
GAFF2_hc    H     0.55397   0.91332   0.47894   0.00000  Uiso   1.00
GAFF2_hc    H     0.61780   0.93517   0.44157   0.00000  Uiso   1.00
GAFF2_hc    H     0.56432   0.92799   0.38264   0.00000  Uiso   1.00
GAFF2_hc    H     0.61291   0.91994   0.36855   0.00000  Uiso   1.00
GAFF2_hn    H     0.56231   0.91390   0.29409   0.00000  Uiso   1.00
GAFF2_ha    H     0.64338   0.69369   0.40046   0.00000  Uiso   1.00
GAFF2_ca    C     0.53328   0.80207   0.24608   0.00000  Uiso   1.00
GAFF2_hc    H     0.63878   0.89751   0.46054   0.00000  Uiso   1.00
GAFF2_hc    H     0.56777   0.86762   0.42317   0.00000  Uiso   1.00
GAFF2_hc    H     0.50338   0.81271   0.19232   0.00000  Uiso   1.00
GAFF2_hc    H     0.53385   0.77217   0.19002   0.00000  Uiso   1.00
GAFF2_hc    H     0.45824   0.75435   0.19434   0.00000  Uiso   1.00
GAFF2_hc    H     0.45796   0.77907   0.23918   0.00000  Uiso   1.00
GAFF2_hc    H     0.60860   0.60946   0.19376   0.00000  Uiso   1.00
GAFF2_hc    H     0.53356   0.81242   0.40046   0.00000  Uiso   1.00
GAFF2_ca    C     0.40420   0.73595   0.13109   0.00000  Uiso   1.00
GAFF2_ca    C     0.42231   0.69800   0.12678   0.00000  Uiso   1.00
GAFF2_ca    C     0.36912   0.99324   0.46198   0.00000  Uiso   1.00
GAFF2_ca    C     0.32399   0.77533   0.25499   0.00000  Uiso   1.00
GAFF2_ca    C     0.31968   0.75176   0.28777   0.00000  Uiso   1.00
GAFF2_ha    H     0.30415   0.76240   0.31278   0.00000  Uiso   1.00
GAFF2_ha    H     0.31048   0.80351   0.25183   0.00000  Uiso   1.00
GAFF2_ha    H     0.32284   1.01969   0.49274   0.00000  Uiso   1.00
GAFF2_ca    C     0.57467   0.78827   0.30473   0.00000  Uiso   1.00
GAFF2_ca    C     0.59508   0.76498   0.33089   0.00000  Uiso   1.00
GAFF2_ca    C     0.59767   0.72416   0.32054   0.00000  Uiso   1.00
GAFF2_ca    C     0.58129   0.71238   0.28489   0.00000  Uiso   1.00
GAFF2_ca    C     0.60687   0.64827   0.29668   0.00000  Uiso   1.00
GAFF2_ca    C     0.58646   0.67357   0.27426   0.00000  Uiso   1.00
GAFF2_ca    C     0.55944   0.73652   0.26161   0.00000  Uiso   1.00
GAFF2_ca    C     0.55541   0.77476   0.26937   0.00000  Uiso   1.00
GAFF2_ha    H     0.54478   0.72503   0.23631   0.00000  Uiso   1.00
GAFF2_c3    C     0.65402   0.76326   0.42518   0.00000  Uiso   1.00
GAFF2_c3    C     0.62239   0.76096   0.45709   0.00000  Uiso   1.00
GAFF2_c3    C     0.63591   0.77160   0.49677   0.00000  Uiso   1.00
GAFF2_hc    H     0.65833   0.75349   0.50999   0.00000  Uiso   1.00
GAFF2_hc    H     0.64482   0.80207   0.49590   0.00000  Uiso   1.00
GAFF2_hc    H     0.61032   0.76930   0.51516   0.00000  Uiso   1.00
GAFF2_hc    H     0.59393   0.77275   0.44991   0.00000  Uiso   1.00
GAFF2_hc    H     0.67040   0.79028   0.42662   0.00000  Uiso   1.00
GAFF2_hc    H     0.44128   0.89320  -0.05462   0.00000  Uiso   1.00
GAFF2_ha    H     0.33290   0.69800   0.31680   0.00000  Uiso   1.00
GAFF2_hc    H     0.38407   0.81012   0.46313   0.00000  Uiso   1.00
GAFF2_os    O     0.44588   0.68075   0.33894   0.00000  Uiso   1.00
GAFF2_c3    C     0.43611   0.67558   0.29869   0.00000  Uiso   1.00
GAFF2_c3    C     0.40161   0.64827   0.29582   0.00000  Uiso   1.00
GAFF2_c3    C     0.37286   0.65775   0.25988   0.00000  Uiso   1.00
GAFF2_hc    H     0.34699   0.64108   0.26707   0.00000  Uiso   1.00
GAFF2_hc    H     0.38724   0.64913   0.32399   0.00000  Uiso   1.00
GAFF2_hc    H     0.41167   0.61837   0.29754   0.00000  Uiso   1.00
GAFF2_hc    H     0.43410   0.70174   0.28116   0.00000  Uiso   1.00
GAFF2_hc    H     0.45968   0.66063   0.28374   0.00000  Uiso   1.00
GAFF2_hc    H     0.39069   0.89550  -0.05088   0.00000  Uiso   1.00
GAFF2_hc    H     0.35245   0.91246  -0.00115   0.00000  Uiso   1.00
GAFF2_ca    C     0.24177   0.89090   0.38551   0.00000  Uiso   1.00
GAFF2_ha    H     0.21417   0.89838   0.39816   0.00000  Uiso   1.00
GAFF2_hc    H     0.28202   0.87394   0.53098   0.00000  Uiso   1.00
GAFF2_hc    H     0.35619   0.78597  -0.09516   0.00000  Uiso   1.00
GAFF2_hc    H     0.58933   0.56375   0.21331   0.00000  Uiso   1.00
GAFF2_hc    H     0.48785   0.61607   0.63763   0.00000  Uiso   1.00
GAFF2_hc    H     0.42518   0.59451   0.62786   0.00000  Uiso   1.00
GAFF2_hc    H     0.53471   0.63504   0.44416   0.00000  Uiso   1.00
GAFF2_hc    H     0.51861   0.99094   0.68650   0.00000  Uiso   1.00
GAFF2_hc    H     0.61435   0.73049   0.45623   0.00000  Uiso   1.00
GAFF2_hc    H     0.67472   0.74055   0.43208   0.00000  Uiso   1.00
GAFF2_c3    C     0.40678   0.76958   0.10206   0.00000  Uiso   1.00
GAFF2_c3    C     0.42547   0.75981   0.06382   0.00000  Uiso   1.00
GAFF2_c3    C     0.45767   0.73135   0.07043   0.00000  Uiso   1.00
GAFF2_c3    C     0.44272   0.68995   0.08711   0.00000  Uiso   1.00
GAFF2_hc    H     0.37717   0.77936   0.09631   0.00000  Uiso   1.00
GAFF2_hc    H     0.42317   0.79316   0.11499   0.00000  Uiso   1.00
GAFF2_hc    H     0.40506   0.74429   0.04571   0.00000  Uiso   1.00
GAFF2_hc    H     0.47980   0.74141   0.09056   0.00000  Uiso   1.00
GAFF2_hc    H     0.42346   0.67500   0.06727   0.00000  Uiso   1.00
GAFF2_hc    H     0.46773   0.67184   0.09458   0.00000  Uiso   1.00
GAFF2_c3    C     0.47405   0.57151   0.17306   0.00000  Uiso   1.00
GAFF2_c3    C     0.53385   0.63476   0.16386   0.00000  Uiso   1.00
GAFF2_c3    C     0.51488   0.56404   0.18945   0.00000  Uiso   1.00
GAFF2_hc    H     0.56231   0.57841   0.15265   0.00000  Uiso   1.00
GAFF2_hc    H     0.47434   0.55570   0.14546   0.00000  Uiso   1.00
GAFF2_hc    H     0.45106   0.55742   0.18945   0.00000  Uiso   1.00
GAFF2_hc    H     0.55685   0.64626   0.14546   0.00000  Uiso   1.00
GAFF2_hc    H     0.52896   0.65172   0.19002   0.00000  Uiso   1.00
GAFF2_hc    H     0.52350   0.53558   0.17910   0.00000  Uiso   1.00
GAFF2_hc    H     0.51143   0.56461   0.22078   0.00000  Uiso   1.00
GAFF2_hc    H     0.46744   0.62872   0.19807   0.00000  Uiso   1.00
GAFF2_c3    C     0.44502   0.79316   0.04140   0.00000  Uiso   1.00
GAFF2_c3    C     0.47434   0.73049   0.02961   0.00000  Uiso   1.00
GAFF2_c3    C     0.47118   0.77131   0.01409   0.00000  Uiso   1.00
GAFF2_hc    H     0.42461   0.81069   0.02501   0.00000  Uiso   1.00
GAFF2_hc    H     0.46313   0.81299   0.05807   0.00000  Uiso   1.00
GAFF2_hc    H     0.46054   0.70979   0.01006   0.00000  Uiso   1.00
GAFF2_hc    H     0.50510   0.72388   0.03076   0.00000  Uiso   1.00
GAFF2_hc    H     0.50108   0.78022   0.01035   0.00000  Uiso   1.00
GAFF2_o     O     0.47463   0.82306  -0.07015   0.00000  Uiso   1.00
GAFF2_hc    H     0.37401   0.81098  -0.00949   0.00000  Uiso   1.00
GAFF2_hc    H     0.34986   0.83599  -0.03852   0.00000  Uiso   1.00
GAFF2_ca    C     0.53299   0.84203   0.25758   0.00000  Uiso   1.00
GAFF2_ha    H     0.51603   0.86273   0.24120   0.00000  Uiso   1.00
GAFF2_os    O     0.57151   0.65689   0.24263   0.00000  Uiso   1.00
GAFF2_c3    C     0.34526   0.99008   0.55024   0.00000  Uiso   1.00
GAFF2_hc    H     0.32830   0.97628   0.52753   0.00000  Uiso   1.00
GAFF2_hc    H     0.32514   1.01279   0.55944   0.00000  Uiso   1.00
GAFF2_c3    C     0.55944   0.99928   0.46198   0.00000  Uiso   1.00
GAFF2_hc    H     0.56375   0.99698   0.43065   0.00000  Uiso   1.00
GAFF2_hc    H     0.57582   0.97657   0.47664   0.00000  Uiso   1.00
GAFF2_hc    H     0.57237   1.02745   0.46831   0.00000  Uiso   1.00
GAFF2_c3    C     0.57467   0.61435   0.24522   0.00000  Uiso   1.00
GAFF2_hc    H     0.54650   0.60515   0.25614   0.00000  Uiso   1.00
GAFF2_os    O     0.49907   0.63131   0.14432   0.00000  Uiso   1.00
GAFF2_hc    H     0.59135   0.91735   0.51171   0.00000  Uiso   1.00
GAFF2_c3    C     0.41426   0.83139   0.51344   0.00000  Uiso   1.00
GAFF2_c3    C     0.41023   0.87509   0.50654   0.00000  Uiso   1.00
GAFF2_c3    C     0.38062   0.82248   0.54248   0.00000  Uiso   1.00
GAFF2_c3    C     0.38321   0.85669   0.57122   0.00000  Uiso   1.00
GAFF2_c3    C     0.39011   0.89061   0.54305   0.00000  Uiso   1.00
GAFF2_hc    H     0.44329   0.82881   0.52609   0.00000  Uiso   1.00
GAFF2_hc    H     0.43869   0.88688   0.49993   0.00000  Uiso   1.00
GAFF2_hc    H     0.39184   0.88285   0.48182   0.00000  Uiso   1.00
GAFF2_hc    H     0.35245   0.82536   0.52810   0.00000  Uiso   1.00
GAFF2_hc    H     0.41110   0.85583   0.58588   0.00000  Uiso   1.00
GAFF2_hc    H     0.35705   0.86043   0.58876   0.00000  Uiso   1.00
GAFF2_hc    H     0.36165   0.89809   0.53184   0.00000  Uiso   1.00
GAFF2_c3    C     0.18485   0.92856   0.33204   0.00000  Uiso   1.00
GAFF2_hc    H     0.17278   0.91246   0.35648   0.00000  Uiso   1.00
GAFF2_hc    H     0.16128   0.92914   0.31077   0.00000  Uiso   1.00
GAFF2_hc    H     0.19031   0.95846   0.34124   0.00000  Uiso   1.00
GAFF2_os    O     0.35101   0.96133   0.58042   0.00000  Uiso   1.00
GAFF2_c3    C     0.38781   0.94753   0.59480   0.00000  Uiso   1.00
GAFF2_c3    C     0.40851   0.92712   0.56059   0.00000  Uiso   1.00
GAFF2_hc    H     0.40592   0.97226   0.60256   0.00000  Uiso   1.00
GAFF2_hc    H     0.38120   0.93057   0.62067   0.00000  Uiso   1.00
GAFF2_hc    H     0.41685   0.94725   0.53759   0.00000  Uiso   1.00
GAFF2_hc    H     0.43697   0.91505   0.56806   0.00000  Uiso   1.00
GAFF2_hc    H     0.49418   0.57094   0.61262   0.00000  Uiso   1.00
GAFF2_c3    C     0.48699   0.64798   0.40161   0.00000  Uiso   1.00
GAFF2_hc    H     0.50625   0.66523   0.38321   0.00000  Uiso   1.00
GAFF2_hc    H     0.46946   0.62699   0.38580   0.00000  Uiso   1.00
GAFF2_c3    C     0.53644   0.83341   0.55570   0.00000  Uiso   1.00
GAFF2_hc    H     0.56806   0.83513   0.55656   0.00000  Uiso   1.00
GAFF2_hc    H     0.52839   0.85152   0.53098   0.00000  Uiso   1.00
GAFF2_c3    C     0.53069   0.89579   0.66494   0.00000  Uiso   1.00
GAFF2_hc    H     0.50424   0.91275   0.66293   0.00000  Uiso   1.00
GAFF2_c3    C     0.43726   0.95587   0.38120   0.00000  Uiso   1.00
GAFF2_hc    H     0.44876   0.97743   0.36136   0.00000  Uiso   1.00
GAFF2_hc    H     0.46054   0.93575   0.38810   0.00000  Uiso   1.00
GAFF2_hc    H     0.48354   0.73681   0.23372   0.00000  Uiso   1.00
GAFF2_c3    C     0.31019   0.90355   0.10234   0.00000  Uiso   1.00
GAFF2_hc    H     0.28346   0.89550   0.08768   0.00000  Uiso   1.00
GAFF2_hc    H     0.31767   0.93230   0.09199   0.00000  Uiso   1.00
GAFF2_c3    C     0.37574   0.76269   0.68363   0.00000  Uiso   1.00
GAFF2_hc    H     0.38896   0.79115   0.67903   0.00000  Uiso   1.00
GAFF2_hc    H     0.34440   0.76613   0.68679   0.00000  Uiso   1.00
GAFF2_os    O     0.34728   0.85267   0.34440   0.00000  Uiso   1.00
GAFF2_c3    C     0.43668   0.86445   0.17939   0.00000  Uiso   1.00
GAFF2_hc    H     0.44646   0.83427   0.18054   0.00000  Uiso   1.00
GAFF2_hc    H     0.45681   0.87911   0.19894   0.00000  Uiso   1.00
GAFF2_hc    H     0.44416   0.87681   0.15121   0.00000  Uiso   1.00
GAFF2_c3    C     0.47089   0.83542   0.80667   0.00000  Uiso   1.00
GAFF2_hc    H     0.45077   0.85870   0.79920   0.00000  Uiso   1.00
GAFF2_hc    H     0.49418   0.84749   0.82449   0.00000  Uiso   1.00
GAFF2_c3    C     0.38896   0.64453   0.22050   0.00000  Uiso   1.00
GAFF2_hc    H     0.36481   0.62642   0.21101   0.00000  Uiso   1.00
GAFF2_hc    H     0.41282   0.62441   0.22567   0.00000  Uiso   1.00
GAFF2_c3    C     0.55282   0.90987   0.70203   0.00000  Uiso   1.00
GAFF2_c3    C     0.57669   0.94552   0.69743   0.00000  Uiso   1.00
GAFF2_hc    H     0.56749   0.88831   0.71985   0.00000  Uiso   1.00
GAFF2_hc    H     0.53328   0.91792   0.72560   0.00000  Uiso   1.00
GAFF2_hc    H     0.60745   0.94006   0.70174   0.00000  Uiso   1.00
GAFF2_hc    H     0.57324   0.96680   0.72071   0.00000  Uiso   1.00
GAFF2_c3    C     0.62354   0.84577   0.40506   0.00000  Uiso   1.00
GAFF2_hc    H     0.62124   0.83053   0.43237   0.00000  Uiso   1.00
GAFF2_hc    H     0.65373   0.85554   0.40247   0.00000  Uiso   1.00
GAFF2_c3    C     0.60543   0.61032   0.27684   0.00000  Uiso   1.00
GAFF2_hc    H     0.63562   0.60687   0.26793   0.00000  Uiso   1.00
GAFF2_hc    H     0.59825   0.58502   0.29495   0.00000  Uiso   1.00
GAFF2_hc    H     0.54851   0.80897   0.47434   0.00000  Uiso   1.00
GAFF2_oh    O     0.27742   0.92224   0.58272   0.00000  Uiso   1.00
GAFF2_o     O     0.26103   0.96133   0.53701   0.00000  Uiso   1.00
GAFF2_ho    H     0.28892   0.94667   0.58933   0.00000  Uiso   1.00
GAFF2_ca    C     0.35446   0.97197   0.39672   0.00000  Uiso   1.00
GAFF2_ha    H     0.27656   1.01251   0.43783   0.00000  Uiso   1.00
GAFF2_c3    C     0.40937   0.80351   0.48095   0.00000  Uiso   1.00
GAFF2_ca    C     0.42978   0.70806   0.36280   0.00000  Uiso   1.00
GAFF2_ha    H     0.40276   0.73652   0.31652   0.00000  Uiso   1.00
GAFF2_ha    H     0.35418   0.77131   0.36079   0.00000  Uiso   1.00
GAFF2_ha    H     0.36309   0.76872   0.42576   0.00000  Uiso   1.00
GAFF2_ca    C     0.30990   0.63677   0.81846   0.00000  Uiso   1.00
GAFF2_ca    C     0.29668   0.61808   0.85152   0.00000  Uiso   1.00
GAFF2_ca    C     0.26448   0.68047   0.86704   0.00000  Uiso   1.00
GAFF2_ca    C     0.27828   0.64252   0.87883   0.00000  Uiso   1.00
GAFF2_ca    C     0.27569   0.62814   0.91649   0.00000  Uiso   1.00
GAFF2_ca    C     0.24407   0.70289   0.89608   0.00000  Uiso   1.00
GAFF2_ca    C     0.30990   0.58272   0.86302   0.00000  Uiso   1.00
GAFF2_ca    C     0.30732   0.56864   0.89981   0.00000  Uiso   1.00
GAFF2_ca    C     0.23976   0.68679   0.93460   0.00000  Uiso   1.00
GAFF2_ca    C     0.25787   0.65114   0.94552   0.00000  Uiso   1.00
GAFF2_ca    C     0.28806   0.59048   0.92885   0.00000  Uiso   1.00
GAFF2_ca    C     0.28087   0.57784   0.96478   0.00000  Uiso   1.00
GAFF2_ca    C     0.25787   0.64022   0.98548   0.00000  Uiso   1.00
GAFF2_ca    C     0.26563   0.60141   0.99411   0.00000  Uiso   1.00
GAFF2_ca    C     0.29840   0.67357   0.80724   0.00000  Uiso   1.00
GAFF2_c2    C     0.32025   0.53069   0.90039   0.00000  Uiso   1.00
GAFF2_c2    C     0.32572   0.55426   0.84117   0.00000  Uiso   1.00
GAFF2_na    N     0.33664   0.52149   0.86474   0.00000  Uiso   1.00
GAFF2_hn    H     0.33894   0.49418   0.85525   0.00000  Uiso   1.00
GAFF2_ca    C     0.27368   0.69513   0.83053   0.00000  Uiso   1.00
GAFF2_ha    H     0.24263   0.65660   1.00704   0.00000  Uiso   1.00
GAFF2_ha    H     0.22682   0.70260   0.95846   0.00000  Uiso   1.00
GAFF2_ha    H     0.28604   0.54822   0.97398   0.00000  Uiso   1.00
GAFF2_ha    H     0.32572   0.62067   0.79661   0.00000  Uiso   1.00
GAFF2_h4    H     0.31077   0.50769   0.91965   0.00000  Uiso   1.00
GAFF2_h4    H     0.34009   0.56001   0.81414   0.00000  Uiso   1.00
GAFF2_ha    H     0.30732   0.68478   0.77936   0.00000  Uiso   1.00
GAFF2_c3    C     0.25844   0.73681   0.81759   0.00000  Uiso   1.00
GAFF2_c3    C     0.25327   0.76269   0.85382   0.00000  Uiso   1.00
GAFF2_c3    C     0.22768   0.74199   0.88343   0.00000  Uiso   1.00
GAFF2_c3    C     0.24781   0.58272   1.03090   0.00000  Uiso   1.00
GAFF2_c3    C     0.25499   0.60515   1.06856   0.00000  Uiso   1.00
GAFF2_c3    C     0.22337   0.59508   1.10105   0.00000  Uiso   1.00
GAFF2_hc    H     0.28087   0.59451   1.08294   0.00000  Uiso   1.00
GAFF2_hc    H     0.25701   0.55254   1.03263   0.00000  Uiso   1.00
GAFF2_hc    H     0.21676   0.57841   1.02832   0.00000  Uiso   1.00
GAFF2_hc    H     0.20037   0.73595   0.86877   0.00000  Uiso   1.00
GAFF2_hc    H     0.28173   0.76786   0.86647   0.00000  Uiso   1.00
GAFF2_hc    H     0.24206   0.79057   0.84433   0.00000  Uiso   1.00
GAFF2_hc    H     0.23085   0.73480   0.80236   0.00000  Uiso   1.00
GAFF2_hc    H     0.27886   0.75032   0.79747   0.00000  Uiso   1.00
GAFF2_ca    C     0.00604   0.86330   0.99554   0.00000  Uiso   1.00
GAFF2_ca    C     0.03392   0.87595   0.96651   0.00000  Uiso   1.00
GAFF2_ca    C     0.01926   0.90154   0.93805   0.00000  Uiso   1.00
GAFF2_ca    C     0.07187   0.86330   0.96708   0.00000  Uiso   1.00
GAFF2_ca    C     0.08481   0.83772   0.99583   0.00000  Uiso   1.00
GAFF2_ca    C     0.05922   0.82938   1.02717   0.00000  Uiso   1.00
GAFF2_ca    C     0.01984   0.84203   1.02860   0.00000  Uiso   1.00
GAFF2_ca    C     0.04398   0.91447   0.90987   0.00000  Uiso   1.00
GAFF2_ca    C     0.09544   0.87423   0.93719   0.00000  Uiso   1.00
GAFF2_ca    C     0.08394   0.90413   0.91217   0.00000  Uiso   1.00
GAFF2_ca    C     0.14546   0.89866   0.88113   0.00000  Uiso   1.00
GAFF2_ca    C     0.13339   0.85899   0.93460   0.00000  Uiso   1.00
GAFF2_ca    C    -0.02012   0.91275   0.93604   0.00000  Uiso   1.00
GAFF2_ca    C     0.03335   0.94322   0.88113   0.00000  Uiso   1.00
GAFF2_ca    C     0.06037   0.95990   0.85612   0.00000  Uiso   1.00
GAFF2_ca    C     0.10004   0.94552   0.85755   0.00000  Uiso   1.00
GAFF2_ca    C     0.10982   0.91649   0.88458   0.00000  Uiso   1.00
GAFF2_h4    H     0.16386   0.90096   0.85583   0.00000  Uiso   1.00
GAFF2_ca    C     0.12390   0.82248   0.99439   0.00000  Uiso   1.00
GAFF2_ca    C     0.14633   0.83024   0.96220   0.00000  Uiso   1.00
GAFF2_ca    C    -0.04743   0.89895   0.96363   0.00000  Uiso   1.00
GAFF2_nb    N     0.15553   0.87107   0.90499   0.00000  Uiso   1.00
GAFF2_ca    C    -0.03450   0.87250   0.99238   0.00000  Uiso   1.00
GAFF2_ha    H    -0.05548   0.85698   1.00934   0.00000  Uiso   1.00
GAFF2_c3    C     0.18600   0.81012   0.95616   0.00000  Uiso   1.00
GAFF2_c3    C     0.18427   0.77562   0.92914   0.00000  Uiso   1.00
GAFF2_hc    H     0.16501   0.78310   0.90528   0.00000  Uiso   1.00
GAFF2_hc    H     0.17191   0.74946   0.94207   0.00000  Uiso   1.00
GAFF2_hc    H     0.20584   0.83082   0.94265   0.00000  Uiso   1.00
GAFF2_hc    H     0.19836   0.80466   0.98462   0.00000  Uiso   1.00
GAFF2_os    O     0.22251   0.76815   0.91505   0.00000  Uiso   1.00
GAFF2_ca    C    -0.00489   0.95530   0.88026   0.00000  Uiso   1.00
GAFF2_ca    C    -0.01897   0.98203   0.85382   0.00000  Uiso   1.00
GAFF2_ca    C     0.00661   0.99756   0.82909   0.00000  Uiso   1.00
GAFF2_c3    C    -0.00632   1.02889   0.80178   0.00000  Uiso   1.00
GAFF2_c3    C     0.00977   1.06856   0.81328   0.00000  Uiso   1.00
GAFF2_c3    C     0.00000   1.10162   0.78223   0.00000  Uiso   1.00
GAFF2_c     C    -0.04312   1.10680   0.78051   0.00000  Uiso   1.00
GAFF2_hc    H     0.01466   1.12807   0.79057   0.00000  Uiso   1.00
GAFF2_hc    H    -0.00345   1.07834   0.84030   0.00000  Uiso   1.00
GAFF2_hc    H     0.04140   1.06626   0.81299   0.00000  Uiso   1.00
GAFF2_hc    H    -0.03795   1.03062   0.80092   0.00000  Uiso   1.00
GAFF2_hc    H     0.00115   1.02055   0.77246   0.00000  Uiso   1.00
GAFF2_ha    H    -0.04973   0.98721   0.85698   0.00000  Uiso   1.00
GAFF2_c3    C    -0.09084   0.91390   0.96105   0.00000  Uiso   1.00
GAFF2_c3    C    -0.12218   0.88400   0.95357   0.00000  Uiso   1.00
GAFF2_c3    C    -0.11758   0.86503   0.91189   0.00000  Uiso   1.00
GAFF2_os    O    -0.13598   0.82881   0.91217   0.00000  Uiso   1.00
GAFF2_c3    C    -0.13713   0.80322   0.87969   0.00000  Uiso   1.00
GAFF2_c3    C    -0.09717   0.78568   0.87164   0.00000  Uiso   1.00
GAFF2_ca    C    -0.08251   0.84289   0.82881   0.00000  Uiso   1.00
GAFF2_hc    H    -0.10148   0.75607   0.86158   0.00000  Uiso   1.00
GAFF2_hc    H    -0.08366   0.78166   0.90010   0.00000  Uiso   1.00
GAFF2_hc    H    -0.15696   0.77965   0.88803   0.00000  Uiso   1.00
GAFF2_hc    H    -0.08653   0.86532   0.90614   0.00000  Uiso   1.00
GAFF2_hc    H    -0.13339   0.88285   0.89119   0.00000  Uiso   1.00
GAFF2_hc    H    -0.11758   0.85957   0.97312   0.00000  Uiso   1.00
GAFF2_hc    H    -0.15121   0.89521   0.95875   0.00000  Uiso   1.00
GAFF2_hc    H    -0.09142   0.93719   0.93977   0.00000  Uiso   1.00
GAFF2_hc    H    -0.09803   0.92482   0.98979   0.00000  Uiso   1.00
GAFF2_c3    C     0.07446   0.80552   1.05994   0.00000  Uiso   1.00
GAFF2_c3    C     0.10493   0.77591   1.04873   0.00000  Uiso   1.00
GAFF2_c3    C     0.11959   0.75320   1.08668   0.00000  Uiso   1.00
GAFF2_hc    H     0.09602   0.74544   1.10622   0.00000  Uiso   1.00
GAFF2_hc    H     0.14029   0.77131   1.10249   0.00000  Uiso   1.00
GAFF2_hc    H     0.08941   0.75492   1.03119   0.00000  Uiso   1.00
GAFF2_hc    H     0.05146   0.78856   1.07345   0.00000  Uiso   1.00
GAFF2_hc    H     0.08969   0.82421   1.08035   0.00000  Uiso   1.00
GAFF2_c3    C     0.20210   0.66609   1.10939   0.00000  Uiso   1.00
GAFF2_c3    C     0.14087   0.71726   1.07805   0.00000  Uiso   1.00
GAFF2_ss    S     0.16214   0.69915   1.12261   0.00000  Uiso   1.00
GAFF2_hc    H     0.16616   0.71841   1.05908   0.00000  Uiso   1.00
GAFF2_c3    C     0.18657   0.62268   1.09961   0.00000  Uiso   1.00
GAFF2_c     C     0.16386   0.62038   1.06166   0.00000  Uiso   1.00
GAFF2_c3    C     0.13080   0.59048   1.05764   0.00000  Uiso   1.00
GAFF2_hc    H     0.10694   0.60400   1.07316   0.00000  Uiso   1.00
GAFF2_hc    H     0.14058   0.56461   1.07316   0.00000  Uiso   1.00
GAFF2_hc    H     0.16731   0.61521   1.12347   0.00000  Uiso   1.00
GAFF2_ca    C    -0.16300   0.95932   0.78108   0.00000  Uiso   1.00
GAFF2_ca    C    -0.10924   0.91304   0.79345   0.00000  Uiso   1.00
GAFF2_ca    C    -0.12333   0.94811   0.77648   0.00000  Uiso   1.00
GAFF2_ca    C    -0.09602   0.97370   0.75780   0.00000  Uiso   1.00
GAFF2_ca    C    -0.06957   0.90240   0.78942   0.00000  Uiso   1.00
GAFF2_ca    C    -0.17278   0.99756   0.76987   0.00000  Uiso   1.00
GAFF2_ca    C    -0.14633   1.02113   0.75234   0.00000  Uiso   1.00
GAFF2_ca    C    -0.04600   0.92655   0.76613   0.00000  Uiso   1.00
GAFF2_ca    C    -0.05865   0.96220   0.75349   0.00000  Uiso   1.00
GAFF2_ca    C    -0.10752   1.00877   0.74314   0.00000  Uiso   1.00
GAFF2_ca    C    -0.17766   0.89464   0.80236   0.00000  Uiso   1.00
GAFF2_c2    C    -0.16415   1.05476   0.73710   0.00000  Uiso   1.00
GAFF2_c2    C    -0.20526   1.01883   0.76901   0.00000  Uiso   1.00
GAFF2_na    N    -0.20325   1.05476   0.74975   0.00000  Uiso   1.00
GAFF2_hn    H    -0.22567   1.06569   0.73480   0.00000  Uiso   1.00
GAFF2_ca    C    -0.13627   0.88630   0.80667   0.00000  Uiso   1.00
GAFF2_ca    C    -0.12333   0.85037   0.82306   0.00000  Uiso   1.00
GAFF2_ca    C    -0.02875   0.80408   0.85065   0.00000  Uiso   1.00
GAFF2_ca    C    -0.00230   0.83283   0.83944   0.00000  Uiso   1.00
GAFF2_ca    C    -0.01639   0.86474   0.81932   0.00000  Uiso   1.00
GAFF2_ca    C    -0.19117   0.93144   0.79143   0.00000  Uiso   1.00
GAFF2_ha    H    -0.04111   0.98175   0.73652   0.00000  Uiso   1.00
GAFF2_ha    H    -0.08883   1.02832   0.72732   0.00000  Uiso   1.00
GAFF2_h4    H    -0.22452   1.01596   0.79345   0.00000  Uiso   1.00
GAFF2_ha    H    -0.01495   0.78080   0.86647   0.00000  Uiso   1.00
GAFF2_ha    H    -0.19606   0.87020   0.80868   0.00000  Uiso   1.00
GAFF2_c3    C    -0.15121   1.07719   0.69944   0.00000  Uiso   1.00
GAFF2_c3    C    -0.17220   1.06425   0.66235   0.00000  Uiso   1.00
GAFF2_c3    C    -0.18083   1.02113   0.65890   0.00000  Uiso   1.00
GAFF2_c     C    -0.14144   0.99813   0.65287   0.00000  Uiso   1.00
GAFF2_o     O    -0.10867   1.01049   0.65316   0.00000  Uiso   1.00
GAFF2_c3    C    -0.14949   0.95673   0.64338   0.00000  Uiso   1.00
GAFF2_c3    C    -0.11298   0.93000   0.64367   0.00000  Uiso   1.00
GAFF2_c3    C    -0.12275   0.88716   0.63964   0.00000  Uiso   1.00
GAFF2_hc    H    -0.09774   0.87480   0.62441   0.00000  Uiso   1.00
GAFF2_hc    H    -0.09659   0.93604   0.67012   0.00000  Uiso   1.00
GAFF2_hc    H    -0.09717   0.93661   0.61722   0.00000  Uiso   1.00
GAFF2_hc    H    -0.16616   0.94753   0.66868   0.00000  Uiso   1.00
GAFF2_hc    H    -0.19520   1.01394   0.68622   0.00000  Uiso   1.00
GAFF2_hc    H    -0.15351   1.07431   0.63907   0.00000  Uiso   1.00
GAFF2_hc    H    -0.12017   1.07288   0.69714   0.00000  Uiso   1.00
GAFF2_hc    H    -0.15524   1.10824   0.70490   0.00000  Uiso   1.00
GAFF2_ca    C    -0.17220   0.84002   0.61291   0.00000  Uiso   1.00
GAFF2_ca    C    -0.20037   0.82852   0.58560   0.00000  Uiso   1.00
GAFF2_ca    C    -0.21676   0.85583   0.56087   0.00000  Uiso   1.00
GAFF2_ca    C    -0.15811   0.87854   0.61348   0.00000  Uiso   1.00
GAFF2_ca    C    -0.25758   0.80466   0.53184   0.00000  Uiso   1.00
GAFF2_ca    C    -0.18054   0.90729   0.59365   0.00000  Uiso   1.00
GAFF2_ca    C    -0.24407   0.84260   0.53385   0.00000  Uiso   1.00
GAFF2_ca    C    -0.16990   0.77246   0.63246   0.00000  Uiso   1.00
GAFF2_ca    C    -0.15955   0.81156   0.63936   0.00000  Uiso   1.00
GAFF2_ca    C    -0.13483   0.81989   0.67069   0.00000  Uiso   1.00
GAFF2_ca    C    -0.15236   0.74256   0.65431   0.00000  Uiso   1.00
GAFF2_ca    C    -0.12534   0.75032   0.68162   0.00000  Uiso   1.00
GAFF2_ca    C    -0.11787   0.78942   0.69311   0.00000  Uiso   1.00
GAFF2_ca    C    -0.20009   0.76154   0.60860   0.00000  Uiso   1.00
GAFF2_ha    H    -0.11183   0.72618   0.69656   0.00000  Uiso   1.00
GAFF2_ca    C    -0.25413   0.86992   0.50510   0.00000  Uiso   1.00
GAFF2_ca    C    -0.23947   0.90700   0.50453   0.00000  Uiso   1.00
GAFF2_nb    N    -0.24206   0.77878   0.55714   0.00000  Uiso   1.00
GAFF2_ca    C    -0.20526   0.89636   0.56346   0.00000  Uiso   1.00
GAFF2_ca    C    -0.21705   0.92281   0.53443   0.00000  Uiso   1.00
GAFF2_ca    C    -0.21561   0.79000   0.58416   0.00000  Uiso   1.00
GAFF2_c3    C    -0.27972   0.86158   0.47089   0.00000  Uiso   1.00
GAFF2_c3    C    -0.27081   0.89608   0.44243   0.00000  Uiso   1.00
GAFF2_c3    C    -0.24637   0.88170   0.40707   0.00000  Uiso   1.00
GAFF2_hc    H    -0.26534   0.86014   0.39385   0.00000  Uiso   1.00
GAFF2_hc    H    -0.24177   0.90211   0.38350   0.00000  Uiso   1.00
GAFF2_hc    H    -0.29812   0.90643   0.43007   0.00000  Uiso   1.00
GAFF2_hc    H    -0.26966   0.83398   0.45882   0.00000  Uiso   1.00
GAFF2_hc    H    -0.30962   0.85698   0.47980   0.00000  Uiso   1.00
GAFF2_h4    H    -0.27799   0.79431   0.51056   0.00000  Uiso   1.00
GAFF2_ha    H    -0.21130   0.73221   0.61003   0.00000  Uiso   1.00
GAFF2_ha    H    -0.16013   0.71295   0.64798   0.00000  Uiso   1.00
GAFF2_ha    H    -0.20670   0.95213   0.53500   0.00000  Uiso   1.00
GAFF2_c3    C    -0.09142   0.79460   0.72905   0.00000  Uiso   1.00
GAFF2_c3    C    -0.04858   0.78827   0.71784   0.00000  Uiso   1.00
GAFF2_c3    C    -0.02472   0.78051   0.75320   0.00000  Uiso   1.00
GAFF2_hc    H    -0.02760   0.80581   0.77188   0.00000  Uiso   1.00
GAFF2_hc    H    -0.03019   0.75809   0.77447   0.00000  Uiso   1.00
GAFF2_hc    H    -0.04772   0.76355   0.69829   0.00000  Uiso   1.00
GAFF2_hc    H    -0.03852   0.81386   0.70203   0.00000  Uiso   1.00
GAFF2_hc    H    -0.09487   0.82277   0.74256   0.00000  Uiso   1.00
GAFF2_os    O    -0.20986   0.86675   0.42288   0.00000  Uiso   1.00
GAFF2_c3    C    -0.18370   0.84490   0.39960   0.00000  Uiso   1.00
GAFF2_c3    C    -0.14460   0.83685   0.42317   0.00000  Uiso   1.00
GAFF2_c3    C    -0.15323   0.82478   0.46658   0.00000  Uiso   1.00
GAFF2_c3    C    -0.16329   0.78137   0.47118   0.00000  Uiso   1.00
GAFF2_hc    H    -0.15438   0.76498   0.44559   0.00000  Uiso   1.00
GAFF2_hc    H    -0.19434   0.77821   0.47434   0.00000  Uiso   1.00
GAFF2_hc    H    -0.17738   0.84174   0.47779   0.00000  Uiso   1.00
GAFF2_hc    H    -0.12937   0.81299   0.40880   0.00000  Uiso   1.00
GAFF2_hc    H    -0.12735   0.86330   0.42231   0.00000  Uiso   1.00
GAFF2_hc    H    -0.19807   0.81788   0.39184   0.00000  Uiso   1.00
GAFF2_hc    H    -0.17853   0.85957   0.37200   0.00000  Uiso   1.00
GAFF2_ca    C    -0.02242   0.76613   0.59595   0.00000  Uiso   1.00
GAFF2_ca    C    -0.04916   0.73681   0.58531   0.00000  Uiso   1.00
GAFF2_ca    C    -0.02817   0.80523   0.58330   0.00000  Uiso   1.00
GAFF2_ca    C     0.04945   0.73969   0.69110   0.00000  Uiso   1.00
GAFF2_ca    C     0.07072   0.73250   0.72474   0.00000  Uiso   1.00
GAFF2_ca    C     0.07704   0.69513   0.73566   0.00000  Uiso   1.00
GAFF2_ca    C    -0.08021   0.74687   0.56030   0.00000  Uiso   1.00
GAFF2_ca    C    -0.06123   0.81414   0.56087   0.00000  Uiso   1.00
GAFF2_ca    C    -0.08596   0.78626   0.54736   0.00000  Uiso   1.00
GAFF2_ca    C    -0.04283   0.69829   0.59537   0.00000  Uiso   1.00
GAFF2_ca    C    -0.10666   0.71841   0.54449   0.00000  Uiso   1.00
GAFF2_ca    C    -0.13397   0.72934   0.51718   0.00000  Uiso   1.00
GAFF2_ca    C    -0.13713   0.76901   0.50539   0.00000  Uiso   1.00
GAFF2_ca    C    -0.11384   0.79661   0.52091   0.00000  Uiso   1.00
GAFF2_hc    H     0.07072   0.77763   0.63792   0.00000  Uiso   1.00
GAFF2_ca    C    -0.01207   0.68995   0.62153   0.00000  Uiso   1.00
GAFF2_ca    C     0.01179   0.71985   0.63677   0.00000  Uiso   1.00
GAFF2_ca    C    -0.09976   0.67845   0.55656   0.00000  Uiso   1.00
GAFF2_ca    C    -0.06670   0.66868   0.57927   0.00000  Uiso   1.00
GAFF2_ca    C    -0.00546   0.65057   0.62872   0.00000  Uiso   1.00
GAFF2_ca    C    -0.02846   0.62096   0.61262   0.00000  Uiso   1.00
GAFF2_ca    C    -0.05893   0.62958   0.58905   0.00000  Uiso   1.00
GAFF2_ca    C     0.03737   0.70921   0.66609   0.00000  Uiso   1.00
GAFF2_ca    C     0.04657   0.67040   0.67472   0.00000  Uiso   1.00
GAFF2_ca    C     0.02559   0.64051   0.65431   0.00000  Uiso   1.00
GAFF2_c3    C    -0.02185   0.57726   0.62239   0.00000  Uiso   1.00
GAFF2_hc    H    -0.03766   0.55685   0.60428   0.00000  Uiso   1.00
GAFF2_hc    H    -0.03364   0.57410   0.65172   0.00000  Uiso   1.00
GAFF2_ca    C     0.01064   0.75579   0.61837   0.00000  Uiso   1.00
GAFF2_ha    H    -0.07474   0.60687   0.57467   0.00000  Uiso   1.00
GAFF2_ha    H    -0.06210   0.84318   0.54851   0.00000  Uiso   1.00
GAFF2_ha    H    -0.15179   0.70950   0.50108   0.00000  Uiso   1.00
GAFF2_c3    C    -0.12937   0.64626   0.54305   0.00000  Uiso   1.00
GAFF2_c3    C    -0.15610   0.62786   0.57467   0.00000  Uiso   1.00
GAFF2_hc    H    -0.17335   0.60371   0.56375   0.00000  Uiso   1.00
GAFF2_hc    H    -0.11557   0.62182   0.52868   0.00000  Uiso   1.00
GAFF2_c3    C     0.02185   0.56979   0.62872   0.00000  Uiso   1.00
GAFF2_os    O     0.04542   0.57812   0.59365   0.00000  Uiso   1.00
GAFF2_c3    C     0.07158   0.54937   0.57899   0.00000  Uiso   1.00
GAFF2_c3    C     0.04628   0.51545   0.56231   0.00000  Uiso   1.00
GAFF2_c3    C     0.05807   0.47405   0.57899   0.00000  Uiso   1.00
GAFF2_hc    H     0.08854   0.46859   0.57180   0.00000  Uiso   1.00
GAFF2_hc    H     0.03708   0.45566   0.56404   0.00000  Uiso   1.00
GAFF2_hc    H     0.01552   0.52178   0.55972   0.00000  Uiso   1.00
GAFF2_hc    H     0.05577   0.51344   0.53213   0.00000  Uiso   1.00
GAFF2_hc    H     0.09372   0.53931   0.59882   0.00000  Uiso   1.00
GAFF2_hc    H     0.08624   0.56317   0.55455   0.00000  Uiso   1.00
GAFF2_ca    C     0.16703   0.72732   0.74400   0.00000  Uiso   1.00
GAFF2_ca    C     0.16904   0.69225   0.76441   0.00000  Uiso   1.00
GAFF2_ca    C     0.16013   0.66120   0.82852   0.00000  Uiso   1.00
GAFF2_ca    C     0.14202   0.66667   0.86417   0.00000  Uiso   1.00
GAFF2_ca    C     0.16013   0.69398   0.80466   0.00000  Uiso   1.00
GAFF2_ca    C     0.14317   0.72589   0.82219   0.00000  Uiso   1.00
GAFF2_ss    S     0.12419   0.71496   0.86992   0.00000  Uiso   1.00
GAFF2_ca    C     0.17996   0.62843   0.81903   0.00000  Uiso   1.00
GAFF2_ca    C     0.17709   0.59336   0.84433   0.00000  Uiso   1.00
GAFF2_c3    C     0.20009   0.55714   0.83312   0.00000  Uiso   1.00
GAFF2_hc    H     0.19922   0.53471   0.85525   0.00000  Uiso   1.00
GAFF2_hc    H     0.23056   0.56490   0.83398   0.00000  Uiso   1.00
GAFF2_c3    C     0.18830   0.53759   0.79373   0.00000  Uiso   1.00
GAFF2_c3    C     0.17939   0.47176   0.74314   0.00000  Uiso   1.00
GAFF2_c3    C     0.16473   0.45824   0.70461   0.00000  Uiso   1.00
GAFF2_c3    C     0.01725   0.38867   0.82076   0.00000  Uiso   1.00
GAFF2_c3    C     0.00345   0.43036   0.82219   0.00000  Uiso   1.00
GAFF2_ca    C    -0.07618   0.45192   0.65689   0.00000  Uiso   1.00
GAFF2_ca    C    -0.06698   0.46342   0.61780   0.00000  Uiso   1.00
GAFF2_ca    C     0.00517   0.46629   0.63274   0.00000  Uiso   1.00
GAFF2_ca    C    -0.02674   0.46859   0.60716   0.00000  Uiso   1.00
GAFF2_ca    C     0.04542   0.46802   0.62124   0.00000  Uiso   1.00
GAFF2_ca    C    -0.11413   0.44157   0.67328   0.00000  Uiso   1.00
GAFF2_ca    C    -0.11672   0.43754   0.71410   0.00000  Uiso   1.00
GAFF2_ca    C    -0.08624   0.43640   0.73681   0.00000  Uiso   1.00
GAFF2_ca    C    -0.09602   0.42432   0.77390   0.00000  Uiso   1.00
GAFF2_c2    C    -0.14748   0.42202   0.73336   0.00000  Uiso   1.00
GAFF2_na    N    -0.13253   0.41225   0.77217   0.00000  Uiso   1.00
GAFF2_c3    C    -0.17565   0.39845   0.71410   0.00000  Uiso   1.00
GAFF2_c3    C    -0.18542   0.41340   0.67357   0.00000  Uiso   1.00
GAFF2_c3    C    -0.20756   0.38120   0.64942   0.00000  Uiso   1.00
GAFF2_c3    C    -0.25068   0.37574   0.65689   0.00000  Uiso   1.00
GAFF2_hc    H    -0.25586   0.37574   0.68823   0.00000  Uiso   1.00
GAFF2_hc    H    -0.26419   0.34986   0.64424   0.00000  Uiso   1.00
GAFF2_hc    H    -0.19089   0.35475   0.65373   0.00000  Uiso   1.00
GAFF2_hc    H    -0.20066   0.39816   0.73307   0.00000  Uiso   1.00
GAFF2_hc    H    -0.16530   0.36826   0.71439   0.00000  Uiso   1.00
GAFF2_hn    H    -0.14317   0.38839   0.78511   0.00000  Uiso   1.00
GAFF2_ha    H    -0.02012   0.47578   0.57726   0.00000  Uiso   1.00
GAFF2_ca    C    -0.02932   0.43180   0.79172   0.00000  Uiso   1.00
GAFF2_hc    H    -0.20440   0.38781   0.61866   0.00000  Uiso   1.00
GAFF2_hc    H    -0.20727   0.43611   0.67673   0.00000  Uiso   1.00
GAFF2_hc    H     0.02674   0.45134   0.81961   0.00000  Uiso   1.00
GAFF2_hc    H    -0.01150   0.43438   0.84979   0.00000  Uiso   1.00
GAFF2_hc    H    -0.00632   0.36797   0.82306   0.00000  Uiso   1.00
GAFF2_hc    H     0.03507   0.38120   0.84577   0.00000  Uiso   1.00
GAFF2_hc    H     0.15294   0.42950   0.70950   0.00000  Uiso   1.00
GAFF2_hc    H     0.00546   0.77965   0.74400   0.00000  Uiso   1.00
GAFF2_ca    C     0.13713   0.63303   0.88745   0.00000  Uiso   1.00
GAFF2_ca    C     0.15495   0.59825   0.87825   0.00000  Uiso   1.00
GAFF2_ca    C    -0.05548   0.87049   0.81299   0.00000  Uiso   1.00
GAFF2_ca    C     0.13770   0.76010   0.79977   0.00000  Uiso   1.00
GAFF2_ca    C     0.15236   0.76125   0.76269   0.00000  Uiso   1.00
GAFF2_ha    H     0.15093   0.78885   0.74802   0.00000  Uiso   1.00
GAFF2_ha    H     0.12017   0.78166   0.81414   0.00000  Uiso   1.00
GAFF2_ha    H     0.00402   0.88860   0.81702   0.00000  Uiso   1.00
GAFF2_ca    C    -0.05031   0.44502   0.72416   0.00000  Uiso   1.00
GAFF2_ca    C    -0.04456   0.45249   0.68420   0.00000  Uiso   1.00
GAFF2_ca    C    -0.00402   0.46026   0.67270   0.00000  Uiso   1.00
GAFF2_ca    C     0.02559   0.45911   0.70116   0.00000  Uiso   1.00
GAFF2_ca    C     0.07331   0.46974   0.64913   0.00000  Uiso   1.00
GAFF2_ca    C     0.06353   0.46716   0.68852   0.00000  Uiso   1.00
GAFF2_ca    C     0.01725   0.44904   0.73911   0.00000  Uiso   1.00
GAFF2_ca    C    -0.02070   0.44071   0.75119   0.00000  Uiso   1.00
GAFF2_ha    H     0.04111   0.44502   0.75924   0.00000  Uiso   1.00
GAFF2_c3    C    -0.09947   0.47377   0.58588   0.00000  Uiso   1.00
GAFF2_c3    C    -0.12390   0.51171   0.59940   0.00000  Uiso   1.00
GAFF2_c3    C    -0.16099   0.51948   0.57582   0.00000  Uiso   1.00
GAFF2_hc    H    -0.17163   0.54851   0.58243   0.00000  Uiso   1.00
GAFF2_hc    H    -0.15696   0.51775   0.54449   0.00000  Uiso   1.00
GAFF2_hc    H    -0.18456   0.49907   0.58215   0.00000  Uiso   1.00
GAFF2_hc    H    -0.12879   0.51171   0.63044   0.00000  Uiso   1.00
GAFF2_hc    H    -0.11672   0.44703   0.58445   0.00000  Uiso   1.00
GAFF2_hc    H     0.22337   0.66695   1.13296   0.00000  Uiso   1.00
GAFF2_ha    H     0.17393   0.72905   0.71353   0.00000  Uiso   1.00
GAFF2_hc    H     0.05951   0.78223   0.59020   0.00000  Uiso   1.00
GAFF2_os    O     0.08481   0.62786   0.71755   0.00000  Uiso   1.00
GAFF2_c3    C     0.11902   0.62096   0.74112   0.00000  Uiso   1.00
GAFF2_c3    C     0.15581   0.63591   0.72330   0.00000  Uiso   1.00
GAFF2_c3    C     0.18715   0.65517   0.74745   0.00000  Uiso   1.00
GAFF2_hc    H     0.21015   0.66350   0.72732   0.00000  Uiso   1.00
GAFF2_hc    H     0.14863   0.65862   0.70231   0.00000  Uiso   1.00
GAFF2_hc    H     0.16760   0.61118   0.70749   0.00000  Uiso   1.00
GAFF2_hc    H     0.11873   0.63131   0.77102   0.00000  Uiso   1.00
GAFF2_hc    H     0.12304   0.58991   0.74630   0.00000  Uiso   1.00
GAFF2_hc    H     0.21705   0.67903   1.08495   0.00000  Uiso   1.00
GAFF2_hc    H     0.12017   0.69455   1.07115   0.00000  Uiso   1.00
GAFF2_ca    C     0.04628   0.98577   0.82794   0.00000  Uiso   1.00
GAFF2_ha    H     0.06526   0.99842   0.80667   0.00000  Uiso   1.00
GAFF2_hc    H     0.00920   1.09501   0.75262   0.00000  Uiso   1.00
GAFF2_hc    H     0.25959   0.63619   1.06483   0.00000  Uiso   1.00
GAFF2_hc    H     0.18859   0.45738   0.68392   0.00000  Uiso   1.00
GAFF2_hc    H    -0.14345   0.62326   0.60342   0.00000  Uiso   1.00
GAFF2_hc    H    -0.14863   0.65775   0.52091   0.00000  Uiso   1.00
GAFF2_hc    H     0.02329   0.53960   0.63821   0.00000  Uiso   1.00
GAFF2_hc    H    -0.19865   1.08121   0.66005   0.00000  Uiso   1.00
GAFF2_hc    H    -0.10378   0.53529   0.59365   0.00000  Uiso   1.00
GAFF2_hc    H    -0.08682   0.47837   0.55742   0.00000  Uiso   1.00
GAFF2_c3    C     0.11614   0.64022   0.92339   0.00000  Uiso   1.00
GAFF2_c3    C     0.12994   0.61751   0.95846   0.00000  Uiso   1.00
GAFF2_c3    C     0.13425   0.57640   0.94782   0.00000  Uiso   1.00
GAFF2_c3    C     0.15955   0.56835   0.91160   0.00000  Uiso   1.00
GAFF2_hc    H     0.11585   0.67069   0.93144   0.00000  Uiso   1.00
GAFF2_hc    H     0.08567   0.63274   0.91879   0.00000  Uiso   1.00
GAFF2_hc    H     0.15840   0.62814   0.96737   0.00000  Uiso   1.00
GAFF2_hc    H     0.10637   0.56806   0.93546   0.00000  Uiso   1.00
GAFF2_hc    H     0.18945   0.56921   0.92195   0.00000  Uiso   1.00
GAFF2_hc    H     0.15783   0.53845   0.90125   0.00000  Uiso   1.00
GAFF2_c3    C     0.22510   0.51976   0.77533   0.00000  Uiso   1.00
GAFF2_c3    C     0.14633   0.48843   0.76958   0.00000  Uiso   1.00
GAFF2_c3    C     0.21532   0.49820   0.73595   0.00000  Uiso   1.00
GAFF2_hc    H     0.19347   0.44732   0.75722   0.00000  Uiso   1.00
GAFF2_hc    H     0.24292   0.50194   0.79431   0.00000  Uiso   1.00
GAFF2_hc    H     0.24465   0.54363   0.76815   0.00000  Uiso   1.00
GAFF2_hc    H     0.12908   0.46313   0.77620   0.00000  Uiso   1.00
GAFF2_hc    H     0.12822   0.51085   0.75636   0.00000  Uiso   1.00
GAFF2_hc    H     0.23803   0.47923   0.72531   0.00000  Uiso   1.00
GAFF2_hc    H     0.20526   0.52321   0.71928   0.00000  Uiso   1.00
GAFF2_hc    H     0.17479   0.56030   0.77648   0.00000  Uiso   1.00
GAFF2_c3    C     0.10292   0.61894   0.99439   0.00000  Uiso   1.00
GAFF2_c3    C     0.14087   0.55627   0.98663   0.00000  Uiso   1.00
GAFF2_c3    C     0.11470   0.58157   1.01653   0.00000  Uiso   1.00
GAFF2_hc    H     0.10321   0.64654   1.01021   0.00000  Uiso   1.00
GAFF2_hc    H     0.07273   0.61578   0.98491   0.00000  Uiso   1.00
GAFF2_hc    H     0.17134   0.56145   0.99324   0.00000  Uiso   1.00
GAFF2_hc    H     0.13282   0.52580   0.98721   0.00000  Uiso   1.00
GAFF2_hc    H     0.08596   0.56892   1.01940   0.00000  Uiso   1.00
GAFF2_o     O     0.17910   0.63706   1.03493   0.00000  Uiso   1.00
GAFF2_hc    H     0.24005   0.59738   1.12778   0.00000  Uiso   1.00
GAFF2_hc    H     0.21532   0.56461   1.10047   0.00000  Uiso   1.00
GAFF2_ca    C    -0.06670   0.42173   0.80293   0.00000  Uiso   1.00
GAFF2_ha    H    -0.07101   0.41397   0.83312   0.00000  Uiso   1.00
GAFF2_os    O     0.09573   0.47147   0.70950   0.00000  Uiso   1.00
GAFF2_c3    C    -0.00546   0.91476   0.75061   0.00000  Uiso   1.00
GAFF2_hc    H    -0.00057   0.88371   0.74831   0.00000  Uiso   1.00
GAFF2_hc    H     0.01610   0.92310   0.77246   0.00000  Uiso   1.00
GAFF2_c3    C    -0.23401   0.93805   0.78568   0.00000  Uiso   1.00
GAFF2_hc    H    -0.24493   0.95760   0.80782   0.00000  Uiso   1.00
GAFF2_hc    H    -0.24982   0.91045   0.78741   0.00000  Uiso   1.00
GAFF2_hc    H    -0.24206   0.94926   0.75751   0.00000  Uiso   1.00
GAFF2_c3    C     0.13080   0.48239   0.68650   0.00000  Uiso   1.00
GAFF2_hc    H     0.13454   0.51401   0.68765   0.00000  Uiso   1.00
GAFF2_os    O     0.16271   0.50683   0.80207   0.00000  Uiso   1.00
GAFF2_hc    H    -0.26678   0.39931   0.64367   0.00000  Uiso   1.00
GAFF2_c3    C     0.02846   0.82392   0.62326   0.00000  Uiso   1.00
GAFF2_c3    C     0.05865   0.85612   0.62527   0.00000  Uiso   1.00
GAFF2_c3    C     0.00431   0.83427   0.58962   0.00000  Uiso   1.00
GAFF2_c3    C    -0.00575   0.87653   0.59738   0.00000  Uiso   1.00
GAFF2_c3    C     0.03392   0.89378   0.61435   0.00000  Uiso   1.00
GAFF2_hc    H     0.01322   0.82306   0.65086   0.00000  Uiso   1.00
GAFF2_hc    H     0.07359   0.85870   0.65316   0.00000  Uiso   1.00
GAFF2_hc    H     0.08078   0.85065   0.60371   0.00000  Uiso   1.00
GAFF2_hc    H     0.02099   0.83312   0.56260   0.00000  Uiso   1.00
GAFF2_hc    H    -0.02990   0.88026   0.61751   0.00000  Uiso   1.00
GAFF2_hc    H    -0.01035   0.88889   0.56864   0.00000  Uiso   1.00
GAFF2_hc    H     0.04858   0.90614   0.58933   0.00000  Uiso   1.00
GAFF2_c3    C     0.13052   0.96737   0.83341   0.00000  Uiso   1.00
GAFF2_hc    H     0.15984   0.96162   0.84375   0.00000  Uiso   1.00
GAFF2_hc    H     0.12419   0.99813   0.83456   0.00000  Uiso   1.00
GAFF2_hc    H     0.13080   0.95472   0.80437   0.00000  Uiso   1.00
GAFF2_os    O     0.00719   0.93230   0.71468   0.00000  Uiso   1.00
GAFF2_c3    C     0.00057   0.91016   0.67932   0.00000  Uiso   1.00
GAFF2_c3    C     0.03019   0.92425   0.64769   0.00000  Uiso   1.00
GAFF2_hc    H     0.00374   0.87883   0.68190   0.00000  Uiso   1.00
GAFF2_hc    H    -0.02904   0.91821   0.67155   0.00000  Uiso   1.00
GAFF2_hc    H     0.02415   0.95098   0.63217   0.00000  Uiso   1.00
GAFF2_hc    H     0.05922   0.92741   0.66005   0.00000  Uiso   1.00
GAFF2_hc    H    -0.17766   0.65028   0.57985   0.00000  Uiso   1.00
GAFF2_c3    C     0.03708   0.59738   0.66092   0.00000  Uiso   1.00
GAFF2_hc    H     0.02702   0.58732   0.68938   0.00000  Uiso   1.00
GAFF2_hc    H     0.06871   0.59508   0.65890   0.00000  Uiso   1.00
GAFF2_c3    C    -0.12592   0.86215   0.67903   0.00000  Uiso   1.00
GAFF2_hc    H    -0.14776   0.87653   0.69685   0.00000  Uiso   1.00
GAFF2_hc    H    -0.09861   0.86762   0.69398   0.00000  Uiso   1.00
GAFF2_c3    C    -0.17709   0.94983   0.60658   0.00000  Uiso   1.00
GAFF2_hc    H    -0.16559   0.96680   0.58243   0.00000  Uiso   1.00
GAFF2_c3    C    -0.15121   0.82277   0.84260   0.00000  Uiso   1.00
GAFF2_hc    H    -0.18111   0.83139   0.84778   0.00000  Uiso   1.00
GAFF2_hc    H    -0.15495   0.79948   0.82191   0.00000  Uiso   1.00
GAFF2_hc    H     0.03421   0.38292   0.79488   0.00000  Uiso   1.00
GAFF2_c3    C     0.13713   0.79747   1.02688   0.00000  Uiso   1.00
GAFF2_hc    H     0.15639   0.77418   1.01768   0.00000  Uiso   1.00
GAFF2_hc    H     0.15323   0.81644   1.04643   0.00000  Uiso   1.00
GAFF2_c3    C    -0.11988   0.83427   0.49792   0.00000  Uiso   1.00
GAFF2_hc    H    -0.13080   0.85468   0.51948   0.00000  Uiso   1.00
GAFF2_hc    H    -0.09228   0.84548   0.48699   0.00000  Uiso   1.00
GAFF2_os    O    -0.03076   0.94121   0.90815   0.00000  Uiso   1.00
GAFF2_c3    C    -0.00776   0.83628   1.06253   0.00000  Uiso   1.00
GAFF2_hc    H     0.00719   0.82909   1.08955   0.00000  Uiso   1.00
GAFF2_hc    H    -0.02990   0.81443   1.05649   0.00000  Uiso   1.00
GAFF2_hc    H    -0.02530   0.86187   1.06799   0.00000  Uiso   1.00
GAFF2_c3    C    -0.25183   0.92856   0.46658   0.00000  Uiso   1.00
GAFF2_hc    H    -0.22797   0.93949   0.44904   0.00000  Uiso   1.00
GAFF2_hc    H    -0.27483   0.94983   0.47032   0.00000  Uiso   1.00
GAFF2_c3    C     0.20584   0.62929   0.78108   0.00000  Uiso   1.00
GAFF2_hc    H     0.23430   0.64108   0.78827   0.00000  Uiso   1.00
GAFF2_hc    H     0.21705   0.60285   0.76786   0.00000  Uiso   1.00
GAFF2_c3    C    -0.21676   0.96996   0.61665   0.00000  Uiso   1.00
GAFF2_c3    C    -0.21015   1.01308   0.62268   0.00000  Uiso   1.00
GAFF2_hc    H    -0.23056   0.95702   0.64194   0.00000  Uiso   1.00
GAFF2_hc    H    -0.23688   0.96536   0.59278   0.00000  Uiso   1.00
GAFF2_hc    H    -0.23803   1.02688   0.62728   0.00000  Uiso   1.00
GAFF2_hc    H    -0.19836   1.02602   0.59623   0.00000  Uiso   1.00
GAFF2_c3    C    -0.14834   0.43036   0.65114   0.00000  Uiso   1.00
GAFF2_hc    H    -0.15898   0.45508   0.63447   0.00000  Uiso   1.00
GAFF2_hc    H    -0.13713   0.40880   0.63102   0.00000  Uiso   1.00
GAFF2_c3    C     0.11672   0.47176   0.64568   0.00000  Uiso   1.00
GAFF2_hc    H     0.12908   0.44473   0.63504   0.00000  Uiso   1.00
GAFF2_hc    H     0.12994   0.49475   0.62843   0.00000  Uiso   1.00
GAFF2_hc    H    -0.10177   0.77275   0.74917   0.00000  Uiso   1.00
GAFF2_oh    O    -0.05951   1.10852   0.74687   0.00000  Uiso   1.00
GAFF2_o     O    -0.06411   1.11514   0.80724   0.00000  Uiso   1.00
GAFF2_ho    H    -0.08567   1.11514   0.75435   0.00000  Uiso   1.00
GAFF2_ca    C    -0.06957   0.80954   0.84864   0.00000  Uiso   1.00
GAFF2_ha    H     0.02817   0.83111   0.84548   0.00000  Uiso   1.00
GAFF2_c3    C     0.04628   0.78453   0.61894   0.00000  Uiso   1.00
GAFF2_ca    C     0.06957   0.66437   0.70921   0.00000  Uiso   1.00
GAFF2_ha    H     0.09401   0.69225   0.76182   0.00000  Uiso   1.00
GAFF2_ha    H     0.07417   0.75665   0.74429   0.00000  Uiso   1.00
GAFF2_ha    H     0.03910   0.76930   0.68909   0.00000  Uiso   1.00
