data_md
_audit_creation_date              2024-03-12
_audit_creation_method            'Materials Studio'
_symmetry_space_group_name_H-M    'P1'
_symmetry_Int_Tables_number       1
_symmetry_cell_setting            triclinic
loop_
_symmetry_equiv_pos_as_xyz
  x,y,z
_cell_length_a                    34.7850
_cell_length_b                    34.7850
_cell_length_c                    34.7850
_cell_angle_alpha                 90.0000
_cell_angle_beta                  90.0000
_cell_angle_gamma                 90.0000
loop_
_atom_site_label
_atom_site_type_symbol
_atom_site_fract_x
_atom_site_fract_y
_atom_site_fract_z
_atom_site_U_iso_or_equiv
_atom_site_adp_type
_atom_site_occupancy
C1     C     0.63044   0.02271   0.72330   0.00000  Uiso   1.00
C2     C     0.63504   0.04858   0.69311   0.00000  Uiso   1.00
C3     C     0.59681   0.09889   0.72790   0.00000  Uiso   1.00
C4     C     0.61636   0.08567   0.69398   0.00000  Uiso   1.00
C5     C     0.61866   0.11097   0.66149   0.00000  Uiso   1.00
C6     C     0.57985   0.13598   0.72962   0.00000  Uiso   1.00
C7     C     0.65143   0.03680   0.65977   0.00000  Uiso   1.00
C8     C     0.65402   0.06095   0.62872   0.00000  Uiso   1.00
C9     C     0.58301   0.16185   0.69743   0.00000  Uiso   1.00
C10    C     0.60256   0.14891   0.66408   0.00000  Uiso   1.00
C11    C     0.63821   0.09832   0.62901   0.00000  Uiso   1.00
C12    C     0.64022   0.12333   0.59623   0.00000  Uiso   1.00
C13    C     0.60802   0.17249   0.63131   0.00000  Uiso   1.00
C14    C     0.62843   0.16041   0.59911   0.00000  Uiso   1.00
C15    C     0.60831   0.03507   0.75406   0.00000  Uiso   1.00
C16    C     0.66753   0.04168   0.59825   0.00000  Uiso   1.00
C17    C     0.66897   0.00374   0.64741   0.00000  Uiso   1.00
N18    N     0.67443   0.00374   0.60745   0.00000  Uiso   1.00
H19    H     0.66408  -0.01840   0.59221   0.00000  Uiso   1.00
C20    C     0.59336   0.07216   0.75924   0.00000  Uiso   1.00
H21    H     0.59825   0.20210   0.63102   0.00000  Uiso   1.00
H22    H     0.57065   0.19089   0.69886   0.00000  Uiso   1.00
H23    H     0.65172   0.11039   0.57007   0.00000  Uiso   1.00
H24    H     0.64367  -0.00546   0.72560   0.00000  Uiso   1.00
H25    H     0.65574   0.04341   0.56921   0.00000  Uiso   1.00
H26    H     0.69254  -0.00891   0.66350   0.00000  Uiso   1.00
H27    H     0.59968   0.01207   0.77332   0.00000  Uiso   1.00
C28    C     0.56605   0.08107   0.79201   0.00000  Uiso   1.00
C29    C     0.56059   0.12448   0.80034   0.00000  Uiso   1.00
C30    C     0.55656   0.14863   0.76441   0.00000  Uiso   1.00
C31    C     0.62699   0.18715   0.56519   0.00000  Uiso   1.00
C32    C     0.59623   0.17738   0.53385   0.00000  Uiso   1.00
C33    C     0.58272   0.21417   0.51200   0.00000  Uiso   1.00
H34    H     0.60716   0.15409   0.51516   0.00000  Uiso   1.00
H35    H     0.65459   0.18859   0.54966   0.00000  Uiso   1.00
H36    H     0.62556   0.21705   0.57496   0.00000  Uiso   1.00
H37    H     0.56605   0.17623   0.77648   0.00000  Uiso   1.00
H38    H     0.53644   0.12534   0.82076   0.00000  Uiso   1.00
H39    H     0.58646   0.13397   0.81558   0.00000  Uiso   1.00
H40    H     0.57841   0.06900   0.81846   0.00000  Uiso   1.00
H41    H     0.53903   0.06555   0.78568   0.00000  Uiso   1.00
C42    C     0.33463   0.09056   0.61205   0.00000  Uiso   1.00
C43    C     0.35130   0.06353   0.63591   0.00000  Uiso   1.00
C44    C     0.33204   0.03162   0.64683   0.00000  Uiso   1.00
C45    C     0.38896   0.06813   0.65258   0.00000  Uiso   1.00
C46    C     0.41081   0.10407   0.64396   0.00000  Uiso   1.00
C47    C     0.39442   0.13109   0.61751   0.00000  Uiso   1.00
C48    C     0.35705   0.12390   0.60170   0.00000  Uiso   1.00
C49    C     0.34756   0.00144   0.67040   0.00000  Uiso   1.00
C50    C     0.40420   0.04283   0.67845   0.00000  Uiso   1.00
C51    C     0.38292   0.00776   0.68852   0.00000  Uiso   1.00
C52    C     0.43812  -0.01322   0.72732   0.00000  Uiso   1.00
C53    C     0.43898   0.04916   0.69944   0.00000  Uiso   1.00
C54    C     0.29438   0.02242   0.63303   0.00000  Uiso   1.00
C55    C     0.33003  -0.03565   0.67673   0.00000  Uiso   1.00
C56    C     0.34900  -0.06785   0.69398   0.00000  Uiso   1.00
C57    C     0.38580  -0.05951   0.71353   0.00000  Uiso   1.00
C58    C     0.40218  -0.02271   0.71008   0.00000  Uiso   1.00
H59    H     0.45278  -0.03134   0.74831   0.00000  Uiso   1.00
C60    C     0.44444   0.11413   0.66580   0.00000  Uiso   1.00
C61    C     0.45853   0.08538   0.69369   0.00000  Uiso   1.00
C62    C     0.27541   0.04945   0.60888   0.00000  Uiso   1.00
N63    N     0.45393   0.02329   0.72359   0.00000  Uiso   1.00
C64    C     0.29553   0.08366   0.59853   0.00000  Uiso   1.00
H65    H     0.28173   0.10551   0.58071   0.00000  Uiso   1.00
C66    C     0.49475   0.09573   0.71985   0.00000  Uiso   1.00
C67    C     0.48785   0.12563   0.75262   0.00000  Uiso   1.00
H68    H     0.48469   0.10867   0.77907   0.00000  Uiso   1.00
H69    H     0.45968   0.13828   0.74486   0.00000  Uiso   1.00
H70    H     0.51028   0.06957   0.72819   0.00000  Uiso   1.00
H71    H     0.51286   0.11154   0.69944   0.00000  Uiso   1.00
O72    O     0.51660   0.15581   0.75435   0.00000  Uiso   1.00
C73    C     0.29294  -0.04025   0.66092   0.00000  Uiso   1.00
C74    C     0.27052  -0.07302   0.66667   0.00000  Uiso   1.00
C75    C     0.28748  -0.10263   0.68794   0.00000  Uiso   1.00
C76    C     0.26074  -0.13224   0.70404   0.00000  Uiso   1.00
C77    C     0.26563  -0.17450   0.68823   0.00000  Uiso   1.00
C78    C     0.24608  -0.17824   0.64712   0.00000  Uiso   1.00
C79    C     0.20152  -0.17824   0.64252   0.00000  Uiso   1.00
H80    H     0.25931  -0.15581   0.62872   0.00000  Uiso   1.00
H81    H     0.29610  -0.18169   0.68449   0.00000  Uiso   1.00
H82    H     0.25270  -0.19664   0.70663   0.00000  Uiso   1.00
H83    H     0.23171  -0.12103   0.69886   0.00000  Uiso   1.00
H84    H     0.26621  -0.13569   0.73509   0.00000  Uiso   1.00
H85    H     0.24091  -0.07446   0.65689   0.00000  Uiso   1.00
C86    C     0.23487   0.03852   0.58818   0.00000  Uiso   1.00
C87    C     0.19721   0.06353   0.59968   0.00000  Uiso   1.00
C88    C     0.15811   0.04370   0.59163   0.00000  Uiso   1.00
O89    O     0.15581   0.03450   0.55110   0.00000  Uiso   1.00
C90    C     0.13425   0.00029   0.53816   0.00000  Uiso   1.00
C91    C     0.15696  -0.03594   0.55052   0.00000  Uiso   1.00
C92    C     0.12103  -0.07043   0.49389   0.00000  Uiso   1.00
H93    H     0.15754  -0.03651   0.58215   0.00000  Uiso   1.00
H94    H     0.18657  -0.03680   0.53989   0.00000  Uiso   1.00
H95    H     0.10464   0.00316   0.54880   0.00000  Uiso   1.00
H96    H     0.13368   0.06037   0.60313   0.00000  Uiso   1.00
H97    H     0.15869   0.01725   0.60860   0.00000  Uiso   1.00
H98    H     0.19549   0.06842   0.63102   0.00000  Uiso   1.00
H99    H     0.19462   0.08998   0.58301   0.00000  Uiso   1.00
H100   H     0.23027   0.00747   0.59163   0.00000  Uiso   1.00
H101   H     0.24120   0.04571   0.55800   0.00000  Uiso   1.00
C102   C     0.41886   0.16559   0.60400   0.00000  Uiso   1.00
C103   C     0.46141   0.16501   0.61118   0.00000  Uiso   1.00
C104   C     0.48555   0.13454   0.58646   0.00000  Uiso   1.00
H105   H     0.48153   0.10493   0.59681   0.00000  Uiso   1.00
H106   H     0.51631   0.14058   0.59163   0.00000  Uiso   1.00
H107   H     0.47492   0.19347   0.60802   0.00000  Uiso   1.00
H108   H     0.40908   0.19261   0.61693   0.00000  Uiso   1.00
H109   H     0.41742   0.16818   0.57237   0.00000  Uiso   1.00
C110   C     0.52379   0.17306   0.48527   0.00000  Uiso   1.00
C111   C     0.48067   0.13512   0.54190   0.00000  Uiso   1.00
S112   S     0.49217   0.18542   0.52551   0.00000  Uiso   1.00
H113   H     0.45048   0.12764   0.53558   0.00000  Uiso   1.00
C114   C     0.55426   0.20526   0.47607   0.00000  Uiso   1.00
C115   C     0.53213   0.24120   0.45853   0.00000  Uiso   1.00
C116   C     0.50683   0.26793   0.48124   0.00000  Uiso   1.00
H117   H     0.52149   0.29582   0.48268   0.00000  Uiso   1.00
H118   H     0.50683   0.25499   0.51028   0.00000  Uiso   1.00
H119   H     0.57237   0.19204   0.45393   0.00000  Uiso   1.00
C120   C     0.06583  -0.02587   0.36050   0.00000  Uiso   1.00
C121   C     0.08423  -0.06497   0.42058   0.00000  Uiso   1.00
C122   C     0.06583  -0.06095   0.38350   0.00000  Uiso   1.00
C123   C     0.04628  -0.09257   0.36855   0.00000  Uiso   1.00
C124   C     0.08423  -0.10177   0.44099   0.00000  Uiso   1.00
C125   C     0.04140  -0.02357   0.32658   0.00000  Uiso   1.00
C126   C     0.02242  -0.05491   0.31364   0.00000  Uiso   1.00
C127   C     0.05980  -0.13109   0.42633   0.00000  Uiso   1.00
C128   C     0.04370  -0.12735   0.39040   0.00000  Uiso   1.00
C129   C     0.02587  -0.09056   0.33290   0.00000  Uiso   1.00
C130   C     0.10407   0.00172   0.41282   0.00000  Uiso   1.00
C131   C     0.00546  -0.04370   0.28029   0.00000  Uiso   1.00
C132   C     0.02961   0.00862   0.30617   0.00000  Uiso   1.00
N133   N     0.00776  -0.00402   0.27368   0.00000  Uiso   1.00
H134   H     0.00287   0.00920   0.24838   0.00000  Uiso   1.00
C135   C     0.10119  -0.03220   0.43726   0.00000  Uiso   1.00
C136   C     0.11643  -0.03249   0.47607   0.00000  Uiso   1.00
C137   C     0.14748  -0.10896   0.54478   0.00000  Uiso   1.00
C138   C     0.13742  -0.14288   0.52580   0.00000  Uiso   1.00
C139   C     0.11470  -0.14173   0.49159   0.00000  Uiso   1.00
C140   C     0.08481   0.00661   0.37545   0.00000  Uiso   1.00
H141   H     0.02932  -0.15265   0.37919   0.00000  Uiso   1.00
H142   H     0.00862  -0.11355   0.32054   0.00000  Uiso   1.00
H143   H     0.01581   0.03162   0.32227   0.00000  Uiso   1.00
H144   H     0.16444  -0.11212   0.57094   0.00000  Uiso   1.00
H145   H     0.11787   0.02702   0.42547   0.00000  Uiso   1.00
C146   C    -0.01754  -0.06727   0.25270   0.00000  Uiso   1.00
C147   C    -0.06123  -0.07359   0.26304   0.00000  Uiso   1.00
C148   C    -0.08164  -0.04111   0.28489   0.00000  Uiso   1.00
C149   C    -0.06928  -0.04312   0.32629   0.00000  Uiso   1.00
O150   O    -0.06555  -0.07331   0.34440   0.00000  Uiso   1.00
C151   C    -0.08021  -0.00719   0.34756   0.00000  Uiso   1.00
C152   C    -0.06325   0.00144   0.38695   0.00000  Uiso   1.00
C153   C    -0.07388   0.04370   0.39902   0.00000  Uiso   1.00
H154   H    -0.07762   0.03938   0.43036   0.00000  Uiso   1.00
H155   H    -0.03220  -0.00431   0.38839   0.00000  Uiso   1.00
H156   H    -0.07676  -0.01754   0.40793   0.00000  Uiso   1.00
H157   H    -0.07072   0.01696   0.32945   0.00000  Uiso   1.00
H158   H    -0.07273  -0.01322   0.27253   0.00000  Uiso   1.00
H159   H    -0.06382  -0.10062   0.27886   0.00000  Uiso   1.00
H160   H    -0.00172  -0.09458   0.24925   0.00000  Uiso   1.00
H161   H    -0.01667  -0.05347   0.22452   0.00000  Uiso   1.00
C162   C    -0.12304   0.09832   0.38982   0.00000  Uiso   1.00
C163   C    -0.16243   0.10924   0.38580   0.00000  Uiso   1.00
C164   C    -0.19232   0.08078   0.37947   0.00000  Uiso   1.00
C165   C    -0.11413   0.05893   0.38465   0.00000  Uiso   1.00
C166   C    -0.23803   0.13224   0.38896   0.00000  Uiso   1.00
C167   C    -0.14144   0.03105   0.37142   0.00000  Uiso   1.00
C168   C    -0.22998   0.09372   0.37947   0.00000  Uiso   1.00
C169   C    -0.10263   0.16444   0.39586   0.00000  Uiso   1.00
C170   C    -0.09228   0.12563   0.39644   0.00000  Uiso   1.00
C171   C    -0.05117   0.11499   0.39644   0.00000  Uiso   1.00
C172   C    -0.07273   0.19290   0.39874   0.00000  Uiso   1.00
C173   C    -0.03364   0.18197   0.40017   0.00000  Uiso   1.00
C174   C    -0.02185   0.14317   0.39902   0.00000  Uiso   1.00
C175   C    -0.14317   0.17565   0.39471   0.00000  Uiso   1.00
H176   H    -0.01265   0.20526   0.40132   0.00000  Uiso   1.00
C177   C    -0.25816   0.06353   0.37487   0.00000  Uiso   1.00
C178   C    -0.24810   0.02444   0.36970   0.00000  Uiso   1.00
N179   N    -0.20986   0.15955   0.39155   0.00000  Uiso   1.00
C180   C    -0.18054   0.04197   0.37142   0.00000  Uiso   1.00
C181   C    -0.20929   0.01495   0.36912   0.00000  Uiso   1.00
C182   C    -0.17163   0.14719   0.39011   0.00000  Uiso   1.00
C183   C    -0.30128   0.06698   0.38149   0.00000  Uiso   1.00
C184   C    -0.31882   0.02760   0.37746   0.00000  Uiso   1.00
C185   C    -0.35015   0.02099   0.40707   0.00000  Uiso   1.00
H186   H    -0.36912   0.04628   0.41081   0.00000  Uiso   1.00
H187   H    -0.37142  -0.00115   0.39902   0.00000  Uiso   1.00
H188   H    -0.33319   0.02875   0.34929   0.00000  Uiso   1.00
H189   H    -0.30530   0.07618   0.41138   0.00000  Uiso   1.00
H190   H    -0.31019   0.08941   0.36108   0.00000  Uiso   1.00
H191   H    -0.26736   0.14345   0.39097   0.00000  Uiso   1.00
H192   H    -0.14978   0.20612   0.39787   0.00000  Uiso   1.00
H193   H    -0.08136   0.22280   0.39960   0.00000  Uiso   1.00
H194   H    -0.20325  -0.01552   0.37056   0.00000  Uiso   1.00
C195   C     0.02185   0.13684   0.39960   0.00000  Uiso   1.00
C196   C     0.03450   0.11844   0.43754   0.00000  Uiso   1.00
C197   C     0.07474   0.12908   0.44991   0.00000  Uiso   1.00
H198   H     0.08394   0.11844   0.47837   0.00000  Uiso   1.00
H199   H     0.09458   0.11844   0.42777   0.00000  Uiso   1.00
H200   H     0.01409   0.12304   0.46141   0.00000  Uiso   1.00
H201   H     0.03019   0.08711   0.43582   0.00000  Uiso   1.00
H202   H     0.02645   0.11787   0.37487   0.00000  Uiso   1.00
O203   O    -0.33348   0.01035   0.44502   0.00000  Uiso   1.00
C204   C    -0.33635   0.03479   0.47607   0.00000  Uiso   1.00
C205   C    -0.29725   0.03277   0.49763   0.00000  Uiso   1.00
C206   C    -0.26161   0.05146   0.48067   0.00000  Uiso   1.00
C207   C    -0.26132   0.09774   0.48412   0.00000  Uiso   1.00
H208   H    -0.28029   0.11240   0.50482   0.00000  Uiso   1.00
H209   H    -0.27167   0.10982   0.45681   0.00000  Uiso   1.00
H210   H    -0.25672   0.04571   0.44991   0.00000  Uiso   1.00
H211   H    -0.30070   0.04571   0.52609   0.00000  Uiso   1.00
H212   H    -0.29064   0.00230   0.50252   0.00000  Uiso   1.00
H213   H    -0.34670   0.06411   0.46974   0.00000  Uiso   1.00
H214   H    -0.35878   0.02415   0.49562   0.00000  Uiso   1.00
C215   C    -0.07589   0.08826   0.52293   0.00000  Uiso   1.00
C216   C    -0.10062   0.12103   0.51401   0.00000  Uiso   1.00
C217   C    -0.09286   0.05203   0.52580   0.00000  Uiso   1.00
C218   C     0.03565   0.11729   0.57525   0.00000  Uiso   1.00
C219   C     0.07245   0.12390   0.59048   0.00000  Uiso   1.00
C220   C     0.09142   0.15610   0.57784   0.00000  Uiso   1.00
C221   C    -0.14115   0.11614   0.50855   0.00000  Uiso   1.00
C222   C    -0.13483   0.04657   0.52034   0.00000  Uiso   1.00
C223   C    -0.15754   0.07906   0.51028   0.00000  Uiso   1.00
C224   C    -0.08308   0.15811   0.51085   0.00000  Uiso   1.00
C225   C    -0.16501   0.14949   0.49878   0.00000  Uiso   1.00
C226   C    -0.20469   0.14259   0.49044   0.00000  Uiso   1.00
C227   C    -0.22021   0.10694   0.49245   0.00000  Uiso   1.00
C228   C    -0.19664   0.07388   0.50194   0.00000  Uiso   1.00
H229   H     0.01984   0.05491   0.51833   0.00000  Uiso   1.00
C230   C    -0.04341   0.16386   0.51718   0.00000  Uiso   1.00
C231   C    -0.01984   0.13167   0.53155   0.00000  Uiso   1.00
C232   C    -0.14748   0.18657   0.49130   0.00000  Uiso   1.00
C233   C    -0.10637   0.19002   0.49619   0.00000  Uiso   1.00
C234   C    -0.02587   0.20037   0.51143   0.00000  Uiso   1.00
C235   C    -0.04916   0.23085   0.49562   0.00000  Uiso   1.00
C236   C    -0.08912   0.22452   0.48900   0.00000  Uiso   1.00
C237   C     0.01897   0.13972   0.54535   0.00000  Uiso   1.00
C238   C     0.03594   0.17565   0.53615   0.00000  Uiso   1.00
C239   C     0.01524   0.20497   0.51545   0.00000  Uiso   1.00
C240   C    -0.03076   0.27167   0.48584   0.00000  Uiso   1.00
H241   H    -0.03191   0.29265   0.50941   0.00000  Uiso   1.00
H242   H    -0.04542   0.28662   0.46227   0.00000  Uiso   1.00
C243   C    -0.03450   0.09343   0.52810   0.00000  Uiso   1.00
H244   H    -0.10464   0.24838   0.47607   0.00000  Uiso   1.00
H245   H    -0.14690   0.01754   0.52120   0.00000  Uiso   1.00
H246   H    -0.22366   0.16386   0.47779   0.00000  Uiso   1.00
C247   C    -0.17421   0.22078   0.48440   0.00000  Uiso   1.00
C248   C    -0.18744   0.24321   0.51976   0.00000  Uiso   1.00
H249   H    -0.20555   0.22423   0.53759   0.00000  Uiso   1.00
H250   H    -0.19865   0.21130   0.46658   0.00000  Uiso   1.00
C251   C     0.01092   0.26621   0.47204   0.00000  Uiso   1.00
O252   O     0.02674   0.30444   0.46946   0.00000  Uiso   1.00
C253   C     0.06411   0.31249   0.45393   0.00000  Uiso   1.00
C254   C     0.09142   0.31508   0.48843   0.00000  Uiso   1.00
C255   C     0.08538   0.34440   0.52120   0.00000  Uiso   1.00
H256   H     0.10608   0.34009   0.54478   0.00000  Uiso   1.00
H257   H     0.05778   0.34296   0.53644   0.00000  Uiso   1.00
H258   H     0.09573   0.28547   0.49907   0.00000  Uiso   1.00
H259   H     0.11988   0.32370   0.47750   0.00000  Uiso   1.00
H260   H     0.06325   0.34153   0.44099   0.00000  Uiso   1.00
H261   H     0.07245   0.29036   0.43295   0.00000  Uiso   1.00
C262   C     0.19347   0.11758   0.50884   0.00000  Uiso   1.00
C263   C     0.21360   0.15121   0.51516   0.00000  Uiso   1.00
C264   C     0.27339   0.18830   0.49964   0.00000  Uiso   1.00
C265   C     0.30617   0.18715   0.47377   0.00000  Uiso   1.00
C266   C     0.24838   0.15840   0.49360   0.00000  Uiso   1.00
C267   C     0.26046   0.13397   0.46371   0.00000  Uiso   1.00
S268   S     0.30042   0.15064   0.43869   0.00000  Uiso   1.00
C269   C     0.26908   0.21389   0.53069   0.00000  Uiso   1.00
C270   C     0.30272   0.23688   0.53989   0.00000  Uiso   1.00
C271   C     0.29984   0.26592   0.57467   0.00000  Uiso   1.00
H272   H     0.32658   0.26103   0.59106   0.00000  Uiso   1.00
H273   H     0.27799   0.25902   0.59652   0.00000  Uiso   1.00
C274   C     0.29495   0.30760   0.56605   0.00000  Uiso   1.00
C275   C     0.24321   0.37372   0.55656   0.00000  Uiso   1.00
C276   C     0.22481   0.41512   0.54621   0.00000  Uiso   1.00
C277   C     0.15093   0.56979   0.39759   0.00000  Uiso   1.00
C278   C     0.13109   0.58215   0.43726   0.00000  Uiso   1.00
C279   C    -0.00057   0.45824   0.45623   0.00000  Uiso   1.00
C280   C    -0.00834   0.41857   0.46744   0.00000  Uiso   1.00
C281   C     0.05778   0.41052   0.49159   0.00000  Uiso   1.00
C282   C     0.02156   0.39500   0.48469   0.00000  Uiso   1.00
C283   C     0.08826   0.38810   0.50884   0.00000  Uiso   1.00
C284   C    -0.02817   0.48642   0.43754   0.00000  Uiso   1.00
C285   C    -0.01409   0.52005   0.42087   0.00000  Uiso   1.00
C286   C     0.02214   0.53040   0.42835   0.00000  Uiso   1.00
C287   C     0.02616   0.56864   0.42145   0.00000  Uiso   1.00
C288   C    -0.03479   0.55369   0.40851   0.00000  Uiso   1.00
N289   N    -0.00834   0.58243   0.40880   0.00000  Uiso   1.00
C290   C    -0.07532   0.55829   0.42317   0.00000  Uiso   1.00
C291   C    -0.08624   0.53040   0.45652   0.00000  Uiso   1.00
C292   C    -0.07848   0.54449   0.49734   0.00000  Uiso   1.00
C293   C    -0.03536   0.55167   0.50453   0.00000  Uiso   1.00
H294   H    -0.01926   0.52436   0.50597   0.00000  Uiso   1.00
H295   H    -0.03249   0.56404   0.53356   0.00000  Uiso   1.00
H296   H    -0.09343   0.52494   0.51718   0.00000  Uiso   1.00
H297   H    -0.09401   0.54937   0.39931   0.00000  Uiso   1.00
H298   H    -0.08423   0.58703   0.43266   0.00000  Uiso   1.00
H299   H    -0.00891   0.60802   0.39500   0.00000  Uiso   1.00
H300   H     0.01495   0.36596   0.49475   0.00000  Uiso   1.00
C301   C     0.09199   0.56605   0.44329   0.00000  Uiso   1.00
H302   H    -0.09199   0.57295   0.49907   0.00000  Uiso   1.00
H303   H    -0.11758   0.52609   0.45479   0.00000  Uiso   1.00
H304   H     0.13253   0.61377   0.43898   0.00000  Uiso   1.00
H305   H     0.15093   0.57467   0.46054   0.00000  Uiso   1.00
H306   H     0.17709   0.55254   0.40218   0.00000  Uiso   1.00
H307   H     0.15840   0.59595   0.38149   0.00000  Uiso   1.00
H308   H     0.24522   0.43640   0.53500   0.00000  Uiso   1.00
H309   H     0.07733   0.16070   0.44904   0.00000  Uiso   1.00
C310   C     0.33865   0.21331   0.48009   0.00000  Uiso   1.00
C311   C     0.33750   0.23717   0.51488   0.00000  Uiso   1.00
C312   C     0.10579  -0.10436   0.47607   0.00000  Uiso   1.00
C313   C     0.23746   0.10206   0.45393   0.00000  Uiso   1.00
C314   C     0.20641   0.09171   0.47808   0.00000  Uiso   1.00
H315   H     0.19175   0.06411   0.47549   0.00000  Uiso   1.00
H316   H     0.24953   0.08222   0.43295   0.00000  Uiso   1.00
H317   H     0.10723  -0.16961   0.47865   0.00000  Uiso   1.00
C318   C     0.04801   0.50827   0.44789   0.00000  Uiso   1.00
C319   C     0.03766   0.47147   0.46112   0.00000  Uiso   1.00
C320   C     0.06670   0.44847   0.47750   0.00000  Uiso   1.00
C321   C     0.10579   0.46457   0.48325   0.00000  Uiso   1.00
C322   C     0.12362   0.40563   0.51373   0.00000  Uiso   1.00
C323   C     0.13339   0.44157   0.50309   0.00000  Uiso   1.00
C324   C     0.11413   0.50309   0.47176   0.00000  Uiso   1.00
C325   C     0.08452   0.52523   0.45336   0.00000  Uiso   1.00
H326   H     0.14288   0.51459   0.47520   0.00000  Uiso   1.00
C327   C    -0.04485   0.39615   0.46256   0.00000  Uiso   1.00
C328   C    -0.06152   0.38724   0.50338   0.00000  Uiso   1.00
C329   C    -0.10407   0.37631   0.50050   0.00000  Uiso   1.00
H330   H    -0.11873   0.39960   0.48527   0.00000  Uiso   1.00
H331   H    -0.10666   0.34843   0.48527   0.00000  Uiso   1.00
H332   H    -0.11643   0.37631   0.52954   0.00000  Uiso   1.00
H333   H    -0.04600   0.36567   0.52063   0.00000  Uiso   1.00
H334   H    -0.03795   0.36912   0.44732   0.00000  Uiso   1.00
H335   H     0.50683   0.16703   0.45911   0.00000  Uiso   1.00
H336   H     0.16645   0.11183   0.52350   0.00000  Uiso   1.00
H337   H    -0.00287   0.04743   0.56231   0.00000  Uiso   1.00
O338   O     0.09631   0.21389   0.54363   0.00000  Uiso   1.00
C339   C     0.13770   0.22280   0.55254   0.00000  Uiso   1.00
C340   C     0.16128   0.19577   0.52753   0.00000  Uiso   1.00
C341   C     0.19836   0.18140   0.54449   0.00000  Uiso   1.00
H342   H     0.19290   0.16818   0.57266   0.00000  Uiso   1.00
H343   H     0.16731   0.20785   0.49907   0.00000  Uiso   1.00
H344   H     0.14403   0.17019   0.52063   0.00000  Uiso   1.00
H345   H     0.14230   0.25270   0.54334   0.00000  Uiso   1.00
H346   H     0.14288   0.22021   0.58358   0.00000  Uiso   1.00
H347   H     0.53903   0.14748   0.49562   0.00000  Uiso   1.00
H348   H     0.50050   0.11499   0.52781   0.00000  Uiso   1.00
C349   C     0.32572  -0.10234   0.69944   0.00000  Uiso   1.00
H350   H     0.33233  -0.12505   0.72014   0.00000  Uiso   1.00
H351   H     0.25614  -0.20526   0.63418   0.00000  Uiso   1.00
H352   H     0.57266   0.16271   0.54909   0.00000  Uiso   1.00
H353   H     0.21446   0.42950   0.57237   0.00000  Uiso   1.00
H354   H    -0.16214   0.24781   0.53845   0.00000  Uiso   1.00
H355   H    -0.16185   0.24148   0.46371   0.00000  Uiso   1.00
H356   H     0.01150   0.25385   0.44301   0.00000  Uiso   1.00
H357   H    -0.07589  -0.08107   0.23602   0.00000  Uiso   1.00
H358   H    -0.06037   0.41455   0.51919   0.00000  Uiso   1.00
H359   H    -0.06497   0.41081   0.44301   0.00000  Uiso   1.00
C360   C     0.37372   0.20986   0.45451   0.00000  Uiso   1.00
C361   C     0.41023   0.22883   0.47176   0.00000  Uiso   1.00
C362   C     0.39787   0.26908   0.48642   0.00000  Uiso   1.00
C363   C     0.37229   0.26534   0.52264   0.00000  Uiso   1.00
H364   H     0.37775   0.17910   0.44876   0.00000  Uiso   1.00
H365   H     0.36711   0.22165   0.42605   0.00000  Uiso   1.00
H366   H     0.42116   0.21331   0.49734   0.00000  Uiso   1.00
H367   H     0.38149   0.28058   0.46198   0.00000  Uiso   1.00
H368   H     0.38580   0.25385   0.54851   0.00000  Uiso   1.00
H369   H     0.36079   0.29438   0.52724   0.00000  Uiso   1.00
C370   C     0.27483   0.31623   0.52724   0.00000  Uiso   1.00
C371   C     0.26879   0.36999   0.59393   0.00000  Uiso   1.00
C372   C     0.26736   0.35820   0.52120   0.00000  Uiso   1.00
H373   H     0.21992   0.35245   0.56087   0.00000  Uiso   1.00
H374   H     0.24723   0.30099   0.52781   0.00000  Uiso   1.00
H375   H     0.29179   0.30387   0.50338   0.00000  Uiso   1.00
H376   H     0.25729   0.38292   0.62038   0.00000  Uiso   1.00
H377   H     0.29754   0.38292   0.59163   0.00000  Uiso   1.00
H378   H     0.25040   0.36194   0.49475   0.00000  Uiso   1.00
H379   H     0.29352   0.37602   0.51919   0.00000  Uiso   1.00
H380   H     0.32313   0.32198   0.56691   0.00000  Uiso   1.00
C381   C     0.44444   0.23775   0.44473   0.00000  Uiso   1.00
C382   C     0.43438   0.29093   0.49504   0.00000  Uiso   1.00
C383   C     0.46399   0.27368   0.46256   0.00000  Uiso   1.00
H384   H     0.46284   0.21216   0.44301   0.00000  Uiso   1.00
H385   H     0.43553   0.24263   0.41483   0.00000  Uiso   1.00
H386   H     0.44904   0.28231   0.52178   0.00000  Uiso   1.00
H387   H     0.43093   0.32198   0.49188   0.00000  Uiso   1.00
H388   H     0.46888   0.29352   0.43812   0.00000  Uiso   1.00
O389   O     0.53443   0.24982   0.42346   0.00000  Uiso   1.00
H390   H     0.60975   0.22797   0.50280   0.00000  Uiso   1.00
H391   H     0.56576   0.22998   0.53356   0.00000  Uiso   1.00
C392   C     0.06095   0.58761   0.42605   0.00000  Uiso   1.00
H393   H     0.06526   0.61722   0.41656   0.00000  Uiso   1.00
O394   O     0.17220   0.44933   0.50740   0.00000  Uiso   1.00
C395   C     0.03651  -0.15524   0.45451   0.00000  Uiso   1.00
H396   H     0.05002  -0.16214   0.48210   0.00000  Uiso   1.00
H397   H     0.02645  -0.18197   0.44099   0.00000  Uiso   1.00
C398   C     0.09314   0.04485   0.35360   0.00000  Uiso   1.00
H399   H     0.06756   0.06210   0.34728   0.00000  Uiso   1.00
H400   H     0.10752   0.04025   0.32572   0.00000  Uiso   1.00
H401   H     0.11097   0.06497   0.37027   0.00000  Uiso   1.00
C402   C     0.19031   0.41110   0.51718   0.00000  Uiso   1.00
H403   H     0.19951   0.40017   0.48872   0.00000  Uiso   1.00
O404   O     0.27397   0.32830   0.59681   0.00000  Uiso   1.00
H405   H    -0.01897   0.57122   0.48584   0.00000  Uiso   1.00
C406   C    -0.03019   0.02242   0.51315   0.00000  Uiso   1.00
C407   C    -0.01150  -0.01552   0.50798   0.00000  Uiso   1.00
C408   C    -0.06986   0.01524   0.53213   0.00000  Uiso   1.00
C409   C    -0.08078  -0.02271   0.51229   0.00000  Uiso   1.00
C410   C    -0.04255  -0.04686   0.51689   0.00000  Uiso   1.00
H411   H    -0.03421   0.03191   0.48325   0.00000  Uiso   1.00
H412   H     0.00230  -0.02041   0.48009   0.00000  Uiso   1.00
H413   H     0.01207  -0.01667   0.52896   0.00000  Uiso   1.00
H414   H    -0.06641   0.01121   0.56317   0.00000  Uiso   1.00
H415   H    -0.08912  -0.01610   0.48239   0.00000  Uiso   1.00
H416   H    -0.10551  -0.03881   0.52408   0.00000  Uiso   1.00
H417   H    -0.03766  -0.05462   0.54707   0.00000  Uiso   1.00
C418   C     0.40793  -0.09257   0.73652   0.00000  Uiso   1.00
H419   H     0.41311  -0.11557   0.71554   0.00000  Uiso   1.00
H420   H     0.39155  -0.10493   0.76067   0.00000  Uiso   1.00
H421   H     0.43467  -0.08394   0.75119   0.00000  Uiso   1.00
O422   O     0.00230  -0.13425   0.46457   0.00000  Uiso   1.00
C423   C     0.00374  -0.09889   0.48584   0.00000  Uiso   1.00
C424   C    -0.03852  -0.08337   0.48814   0.00000  Uiso   1.00
H425   H     0.01380  -0.10292   0.51545   0.00000  Uiso   1.00
H426   H     0.02357  -0.07819   0.47233   0.00000  Uiso   1.00
H427   H    -0.04628  -0.07359   0.45911   0.00000  Uiso   1.00
H428   H    -0.05778  -0.10522   0.50022   0.00000  Uiso   1.00
H429   H    -0.20152   0.27138   0.51833   0.00000  Uiso   1.00
C430   C     0.03536   0.24091   0.49993   0.00000  Uiso   1.00
H431   H     0.06008   0.22740   0.48584   0.00000  Uiso   1.00
H432   H     0.04456   0.25672   0.52551   0.00000  Uiso   1.00
C433   C    -0.04140   0.07302   0.38982   0.00000  Uiso   1.00
H434   H    -0.03076   0.06670   0.36079   0.00000  Uiso   1.00
H435   H    -0.01725   0.06612   0.40937   0.00000  Uiso   1.00
C436   C    -0.12563  -0.00431   0.34986   0.00000  Uiso   1.00
H437   H    -0.13483  -0.02990   0.36596   0.00000  Uiso   1.00
C438   C     0.13080   0.00431   0.49504   0.00000  Uiso   1.00
H439   H     0.15840   0.01437   0.48297   0.00000  Uiso   1.00
H440   H     0.10953   0.02702   0.49015   0.00000  Uiso   1.00
H441   H     0.13282   0.55139   0.37919   0.00000  Uiso   1.00
C442   C     0.46543   0.15294   0.65545   0.00000  Uiso   1.00
H443   H     0.45537   0.17536   0.67529   0.00000  Uiso   1.00
H444   H     0.49677   0.15035   0.65977   0.00000  Uiso   1.00
C445   C    -0.22395   0.03910   0.50597   0.00000  Uiso   1.00
H446   H    -0.20929   0.01409   0.49332   0.00000  Uiso   1.00
H447   H    -0.23142   0.03306   0.53615   0.00000  Uiso   1.00
O448   O     0.27541  -0.01179   0.63993   0.00000  Uiso   1.00
C449   C     0.33693   0.15524   0.57611   0.00000  Uiso   1.00
H450   H     0.35533   0.18025   0.57036   0.00000  Uiso   1.00
H451   H     0.31364   0.16933   0.59250   0.00000  Uiso   1.00
H452   H     0.32543   0.14202   0.54995   0.00000  Uiso   1.00
C453   C    -0.28403  -0.00029   0.37430   0.00000  Uiso   1.00
H454   H    -0.28173  -0.01552   0.40190   0.00000  Uiso   1.00
H455   H    -0.28748  -0.02099   0.35073   0.00000  Uiso   1.00
C456   C     0.22970   0.21446   0.55311   0.00000  Uiso   1.00
H457   H     0.23746   0.21187   0.58358   0.00000  Uiso   1.00
H458   H     0.21389   0.24206   0.55426   0.00000  Uiso   1.00
C459   C    -0.14144  -0.00517   0.30904   0.00000  Uiso   1.00
C460   C    -0.12534  -0.04053   0.28374   0.00000  Uiso   1.00
H461   H    -0.13655   0.02329   0.29610   0.00000  Uiso   1.00
H462   H    -0.17278  -0.00834   0.30933   0.00000  Uiso   1.00
H463   H    -0.13569  -0.03651   0.25413   0.00000  Uiso   1.00
H464   H    -0.13742  -0.06813   0.29352   0.00000  Uiso   1.00
C465   C    -0.07130   0.48843   0.44789   0.00000  Uiso   1.00
H466   H    -0.08596   0.47635   0.42231   0.00000  Uiso   1.00
H467   H    -0.07819   0.47061   0.47291   0.00000  Uiso   1.00
C468   C     0.15783   0.38494   0.52896   0.00000  Uiso   1.00
H469   H     0.15380   0.38292   0.56030   0.00000  Uiso   1.00
H470   H     0.16156   0.35590   0.51660   0.00000  Uiso   1.00
H471   H     0.03708   0.16415   0.39471   0.00000  Uiso   1.00
O472   O     0.19117  -0.17680   0.60658   0.00000  Uiso   1.00
O473   O     0.18312  -0.19692   0.66523   0.00000  Uiso   1.00
H474   H     0.16559  -0.18744   0.60457   0.00000  Uiso   1.00
C475   C     0.13857  -0.07302   0.53011   0.00000  Uiso   1.00
H476   H     0.14604  -0.17076   0.53701   0.00000  Uiso   1.00
C477   C    -0.00862   0.05577   0.53213   0.00000  Uiso   1.00
C478   C     0.07446   0.18169   0.55196   0.00000  Uiso   1.00
H479   H     0.11844   0.16300   0.59250   0.00000  Uiso   1.00
H480   H     0.08366   0.10464   0.61291   0.00000  Uiso   1.00
H481   H     0.01811   0.09372   0.58675   0.00000  Uiso   1.00
C482   C     0.40736   0.47147   0.39701   0.00000  Uiso   1.00
C483   C     0.39557   0.46514   0.43611   0.00000  Uiso   1.00
C484   C     0.38206   0.53701   0.44157   0.00000  Uiso   1.00
C485   C     0.38177   0.49935   0.45796   0.00000  Uiso   1.00
C486   C     0.36682   0.49332   0.49590   0.00000  Uiso   1.00
C487   C     0.36797   0.56892   0.46169   0.00000  Uiso   1.00
C488   C     0.39155   0.43036   0.45508   0.00000  Uiso   1.00
C489   C     0.37574   0.42461   0.49015   0.00000  Uiso   1.00
C490   C     0.35389   0.56087   0.49935   0.00000  Uiso   1.00
C491   C     0.35015   0.52321   0.51574   0.00000  Uiso   1.00
C492   C     0.36251   0.45479   0.51229   0.00000  Uiso   1.00
C493   C     0.34555   0.44876   0.54880   0.00000  Uiso   1.00
C494   C     0.33463   0.51718   0.55254   0.00000  Uiso   1.00
C495   C     0.33233   0.48067   0.57036   0.00000  Uiso   1.00
C496   C     0.41023   0.50827   0.38350   0.00000  Uiso   1.00
C497   C     0.36826   0.38637   0.49447   0.00000  Uiso   1.00
C498   C     0.39356   0.39529   0.43783   0.00000  Uiso   1.00
N499   N     0.37890   0.36539   0.46256   0.00000  Uiso   1.00
H500   H     0.37027   0.33836   0.45652   0.00000  Uiso   1.00
C501   C     0.39874   0.54219   0.40420   0.00000  Uiso   1.00
H502   H     0.32715   0.54104   0.57151   0.00000  Uiso   1.00
H503   H     0.34296   0.58790   0.51114   0.00000  Uiso   1.00
H504   H     0.34153   0.41972   0.55972   0.00000  Uiso   1.00
H505   H     0.41311   0.44847   0.37660   0.00000  Uiso   1.00
H506   H     0.36136   0.37142   0.52120   0.00000  Uiso   1.00
H507   H     0.39126   0.38982   0.40707   0.00000  Uiso   1.00
H508   H     0.42001   0.51114   0.35389   0.00000  Uiso   1.00
C509   C     0.39902   0.58014   0.38177   0.00000  Uiso   1.00
C510   C     0.38839   0.61607   0.40707   0.00000  Uiso   1.00
C511   C     0.35964   0.60630   0.43956   0.00000  Uiso   1.00
C512   C     0.31307   0.47549   0.61061   0.00000  Uiso   1.00
C513   C     0.32428   0.50482   0.64194   0.00000  Uiso   1.00
C514   C     0.28978   0.51603   0.67098   0.00000  Uiso   1.00
H515   H     0.34526   0.49015   0.66063   0.00000  Uiso   1.00
H516   H     0.31537   0.44617   0.62211   0.00000  Uiso   1.00
H517   H     0.28173   0.47894   0.60716   0.00000  Uiso   1.00
H518   H     0.33204   0.59853   0.42605   0.00000  Uiso   1.00
H519   H     0.41397   0.62326   0.42403   0.00000  Uiso   1.00
H520   H     0.37631   0.63964   0.38982   0.00000  Uiso   1.00
H521   H     0.38005   0.57812   0.35648   0.00000  Uiso   1.00
H522   H     0.42863   0.58560   0.37171   0.00000  Uiso   1.00
C523   C     0.14834   0.73365   0.54880   0.00000  Uiso   1.00
C524   C     0.16818   0.74285   0.51401   0.00000  Uiso   1.00
C525   C     0.14489   0.75521   0.47894   0.00000  Uiso   1.00
C526   C     0.20756   0.73537   0.50999   0.00000  Uiso   1.00
C527   C     0.22941   0.72531   0.54305   0.00000  Uiso   1.00
C528   C     0.21044   0.72014   0.57812   0.00000  Uiso   1.00
C529   C     0.16961   0.72244   0.58243   0.00000  Uiso   1.00
C530   C     0.16358   0.76211   0.44416   0.00000  Uiso   1.00
C531   C     0.22567   0.74457   0.47348   0.00000  Uiso   1.00
C532   C     0.20411   0.75924   0.44099   0.00000  Uiso   1.00
C533   C     0.26333   0.76154   0.40506   0.00000  Uiso   1.00
C534   C     0.26621   0.73940   0.46773   0.00000  Uiso   1.00
C535   C     0.10522   0.75550   0.48038   0.00000  Uiso   1.00
C536   C     0.14230   0.77073   0.41052   0.00000  Uiso   1.00
C537   C     0.16185   0.78396   0.37832   0.00000  Uiso   1.00
C538   C     0.20267   0.78338   0.37459   0.00000  Uiso   1.00
C539   C     0.22280   0.76757   0.40563   0.00000  Uiso   1.00
H540   H     0.28029   0.76211   0.37861   0.00000  Uiso   1.00
C541   C     0.26994   0.71726   0.53673   0.00000  Uiso   1.00
C542   C     0.28719   0.71985   0.49964   0.00000  Uiso   1.00
C543   C     0.08596   0.74084   0.51200   0.00000  Uiso   1.00
N544   N     0.28432   0.74831   0.43410   0.00000  Uiso   1.00
C545   C     0.10752   0.73221   0.54535   0.00000  Uiso   1.00
H546   H     0.09343   0.71755   0.56921   0.00000  Uiso   1.00
C547   C     0.32514   0.69829   0.48843   0.00000  Uiso   1.00
C548   C     0.31652   0.66005   0.46888   0.00000  Uiso   1.00
H549   H     0.29725   0.66178   0.44358   0.00000  Uiso   1.00
H550   H     0.29898   0.64051   0.48642   0.00000  Uiso   1.00
H551   H     0.34268   0.71611   0.46946   0.00000  Uiso   1.00
H552   H     0.34469   0.69110   0.51229   0.00000  Uiso   1.00
O553   O     0.35504   0.64223   0.46284   0.00000  Uiso   1.00
C554   C     0.10062   0.76470   0.41167   0.00000  Uiso   1.00
C555   C     0.07733   0.77476   0.38005   0.00000  Uiso   1.00
C556   C     0.09544   0.78856   0.34670   0.00000  Uiso   1.00
C557   C     0.07245   0.80034   0.31192   0.00000  Uiso   1.00
C558   C     0.05548   0.76527   0.29036   0.00000  Uiso   1.00
C559   C     0.08854   0.73969   0.27311   0.00000  Uiso   1.00
C560   C     0.11097   0.75751   0.23918   0.00000  Uiso   1.00
H561   H     0.10982   0.72790   0.29294   0.00000  Uiso   1.00
H562   H     0.03910   0.74831   0.31163   0.00000  Uiso   1.00
H563   H     0.03680   0.77390   0.26649   0.00000  Uiso   1.00
H564   H     0.09027   0.81788   0.29237   0.00000  Uiso   1.00
H565   H     0.05261   0.82277   0.32227   0.00000  Uiso   1.00
H566   H     0.04628   0.77418   0.38522   0.00000  Uiso   1.00
C567   C     0.04168   0.73221   0.51286   0.00000  Uiso   1.00
C568   C     0.03220   0.69283   0.49475   0.00000  Uiso   1.00
C569   C    -0.00949   0.68075   0.49217   0.00000  Uiso   1.00
O570   O    -0.03277   0.70950   0.47089   0.00000  Uiso   1.00
C571   C    -0.01955   0.72445   0.43352   0.00000  Uiso   1.00
C572   C    -0.04916   0.75579   0.42317   0.00000  Uiso   1.00
C573   C    -0.03277   0.73997   0.35073   0.00000  Uiso   1.00
H574   H    -0.04887   0.77936   0.44444   0.00000  Uiso   1.00
H575   H    -0.07704   0.74256   0.43007   0.00000  Uiso   1.00
H576   H     0.00949   0.73624   0.43697   0.00000  Uiso   1.00
H577   H    -0.01984   0.67730   0.52178   0.00000  Uiso   1.00
H578   H    -0.00719   0.65287   0.47779   0.00000  Uiso   1.00
H579   H     0.05060   0.69225   0.46917   0.00000  Uiso   1.00
H580   H     0.04830   0.67213   0.51258   0.00000  Uiso   1.00
H581   H     0.02760   0.75406   0.49475   0.00000  Uiso   1.00
H582   H     0.02674   0.73624   0.54018   0.00000  Uiso   1.00
C583   C     0.23430   0.70835   0.61348   0.00000  Uiso   1.00
C584   C     0.26994   0.68248   0.60572   0.00000  Uiso   1.00
C585   C     0.29467   0.67127   0.64022   0.00000  Uiso   1.00
H586   H     0.31134   0.69685   0.64913   0.00000  Uiso   1.00
H587   H     0.31422   0.64942   0.62814   0.00000  Uiso   1.00
H588   H     0.25959   0.65517   0.59365   0.00000  Uiso   1.00
H589   H     0.22078   0.69196   0.63677   0.00000  Uiso   1.00
H590   H     0.24378   0.73595   0.62556   0.00000  Uiso   1.00
C591   C     0.31278   0.58358   0.68277   0.00000  Uiso   1.00
C592   C     0.27311   0.65603   0.67385   0.00000  Uiso   1.00
S593   S     0.30099   0.62699   0.70749   0.00000  Uiso   1.00
H594   H     0.24896   0.63993   0.66149   0.00000  Uiso   1.00
C595   C     0.27713   0.55685   0.67242   0.00000  Uiso   1.00
C596   C     0.25701   0.56691   0.63332   0.00000  Uiso   1.00
C597   C     0.21245   0.56432   0.63418   0.00000  Uiso   1.00
H598   H     0.20095   0.58991   0.64884   0.00000  Uiso   1.00
H599   H     0.20325   0.53903   0.65057   0.00000  Uiso   1.00
H600   H     0.25643   0.55886   0.69599   0.00000  Uiso   1.00
C601   C    -0.00805   0.61118   0.27656   0.00000  Uiso   1.00
C602   C    -0.02904   0.68018   0.29495   0.00000  Uiso   1.00
C603   C    -0.02731   0.64827   0.26908   0.00000  Uiso   1.00
C604   C    -0.04312   0.65402   0.23056   0.00000  Uiso   1.00
C605   C    -0.04082   0.71841   0.28317   0.00000  Uiso   1.00
C606   C    -0.00230   0.58531   0.24666   0.00000  Uiso   1.00
C607   C    -0.01869   0.59106   0.21101   0.00000  Uiso   1.00
C608   C    -0.05865   0.72186   0.24580   0.00000  Uiso   1.00
C609   C    -0.06210   0.68823   0.22308   0.00000  Uiso   1.00
C610   C    -0.04111   0.62383   0.20469   0.00000  Uiso   1.00
C611   C     0.00891   0.64022   0.33865   0.00000  Uiso   1.00
C612   C    -0.01725   0.55771   0.18974   0.00000  Uiso   1.00
C613   C     0.01064   0.54851   0.24608   0.00000  Uiso   1.00
N614   N     0.00517   0.52954   0.21044   0.00000  Uiso   1.00
H615   H    -0.00489   0.50223   0.21187   0.00000  Uiso   1.00
C616   C    -0.01437   0.67299   0.33290   0.00000  Uiso   1.00
C617   C    -0.02012   0.70231   0.36194   0.00000  Uiso   1.00
C618   C    -0.05290   0.80638   0.36826   0.00000  Uiso   1.00
C619   C    -0.05060   0.81644   0.32859   0.00000  Uiso   1.00
C620   C    -0.04226   0.78770   0.30243   0.00000  Uiso   1.00
C621   C     0.01380   0.60975   0.31077   0.00000  Uiso   1.00
H622   H    -0.07704   0.69024   0.19577   0.00000  Uiso   1.00
H623   H    -0.05491   0.62757   0.17680   0.00000  Uiso   1.00
H624   H     0.03450   0.53471   0.26132   0.00000  Uiso   1.00
H625   H    -0.06095   0.82823   0.38925   0.00000  Uiso   1.00
H626   H     0.02242   0.63677   0.36654   0.00000  Uiso   1.00
C627   C    -0.03450   0.54736   0.15179   0.00000  Uiso   1.00
C628   C    -0.07848   0.54046   0.15265   0.00000  Uiso   1.00
C629   C    -0.09056   0.50740   0.17996   0.00000  Uiso   1.00
C630   C    -0.06698   0.47089   0.17364   0.00000  Uiso   1.00
O631   O    -0.03594   0.46457   0.19031   0.00000  Uiso   1.00
C632   C    -0.08538   0.43956   0.14719   0.00000  Uiso   1.00
C633   C    -0.05836   0.40880   0.13282   0.00000  Uiso   1.00
C634   C    -0.07676   0.37775   0.10579   0.00000  Uiso   1.00
H635   H    -0.05462   0.37401   0.08366   0.00000  Uiso   1.00
H636   H    -0.04600   0.39356   0.15783   0.00000  Uiso   1.00
H637   H    -0.03421   0.42346   0.11873   0.00000  Uiso   1.00
H638   H    -0.10436   0.42375   0.16674   0.00000  Uiso   1.00
H639   H    -0.08366   0.51430   0.21015   0.00000  Uiso   1.00
H640   H    -0.08452   0.53213   0.12304   0.00000  Uiso   1.00
H641   H    -0.02070   0.52178   0.13914   0.00000  Uiso   1.00
H642   H    -0.02760   0.57007   0.13080   0.00000  Uiso   1.00
C643   C    -0.13569   0.36481   0.06353   0.00000  Uiso   1.00
C644   C    -0.15984   0.37717   0.03364   0.00000  Uiso   1.00
C645   C    -0.16300   0.41685   0.02559   0.00000  Uiso   1.00
C646   C    -0.11154   0.39184   0.08394   0.00000  Uiso   1.00
C647   C    -0.19980   0.40046  -0.03364   0.00000  Uiso   1.00
C648   C    -0.12189   0.43122   0.08107   0.00000  Uiso   1.00
C649   C    -0.18226   0.42978  -0.00949   0.00000  Uiso   1.00
C650   C    -0.15121   0.30013   0.04743   0.00000  Uiso   1.00
C651   C    -0.13195   0.32687   0.07187   0.00000  Uiso   1.00
C652   C    -0.11039   0.31249   0.10378   0.00000  Uiso   1.00
C653   C    -0.14834   0.25988   0.05117   0.00000  Uiso   1.00
C654   C    -0.12994   0.24637   0.08394   0.00000  Uiso   1.00
C655   C    -0.11010   0.27224   0.11010   0.00000  Uiso   1.00
C656   C    -0.17048   0.31335   0.01236   0.00000  Uiso   1.00
H657   H    -0.12822   0.21504   0.08509   0.00000  Uiso   1.00
C658   C    -0.18226   0.46946  -0.01811   0.00000  Uiso   1.00
C659   C    -0.16271   0.49590   0.00402   0.00000  Uiso   1.00
N660   N    -0.19664   0.36280  -0.02674   0.00000  Uiso   1.00
C661   C    -0.14575   0.44387   0.05002   0.00000  Uiso   1.00
C662   C    -0.14345   0.48412   0.03651   0.00000  Uiso   1.00
C663   C    -0.17795   0.35188   0.00690   0.00000  Uiso   1.00
C664   C    -0.19951   0.48757  -0.05405   0.00000  Uiso   1.00
C665   C    -0.18284   0.52925  -0.05232   0.00000  Uiso   1.00
C666   C    -0.15179   0.53558  -0.08308   0.00000  Uiso   1.00
H667   H    -0.12793   0.51488  -0.08711   0.00000  Uiso   1.00
H668   H    -0.16703   0.53443  -0.11097   0.00000  Uiso   1.00
H669   H    -0.20842   0.54679  -0.05836   0.00000  Uiso   1.00
H670   H    -0.19462   0.47319  -0.08193   0.00000  Uiso   1.00
H671   H    -0.23056   0.48929  -0.04830   0.00000  Uiso   1.00
H672   H    -0.21389   0.40966  -0.05980   0.00000  Uiso   1.00
H673   H    -0.18111   0.29265  -0.00834   0.00000  Uiso   1.00
H674   H    -0.16243   0.24062   0.03105   0.00000  Uiso   1.00
H675   H    -0.12477   0.50453   0.05117   0.00000  Uiso   1.00
C676   C    -0.09228   0.25183   0.14432   0.00000  Uiso   1.00
C677   C    -0.12017   0.25155   0.17968   0.00000  Uiso   1.00
C678   C    -0.10234   0.23315   0.21245   0.00000  Uiso   1.00
H679   H    -0.12132   0.23803   0.23746   0.00000  Uiso   1.00
H680   H    -0.09774   0.20181   0.21044   0.00000  Uiso   1.00
H681   H    -0.12678   0.28173   0.18657   0.00000  Uiso   1.00
H682   H    -0.14661   0.23660   0.17134   0.00000  Uiso   1.00
H683   H    -0.09113   0.22078   0.13799   0.00000  Uiso   1.00
O684   O    -0.13569   0.57381  -0.08193   0.00000  Uiso   1.00
C685   C    -0.09717   0.58014  -0.09631   0.00000  Uiso   1.00
C686   C    -0.07503   0.60860  -0.06928   0.00000  Uiso   1.00
C687   C    -0.06181   0.59365  -0.02789   0.00000  Uiso   1.00
C688   C    -0.04485   0.55081  -0.02731   0.00000  Uiso   1.00
H689   H    -0.02932   0.54190  -0.05318   0.00000  Uiso   1.00
H690   H    -0.06871   0.53069  -0.02386   0.00000  Uiso   1.00
H691   H    -0.08624   0.59278  -0.00776   0.00000  Uiso   1.00
H692   H    -0.05203   0.62239  -0.08624   0.00000  Uiso   1.00
H693   H    -0.09199   0.63504  -0.06526   0.00000  Uiso   1.00
H694   H    -0.08021   0.55369  -0.09832   0.00000  Uiso   1.00
H695   H    -0.09573   0.59480  -0.12419   0.00000  Uiso   1.00
C696   C     0.05088   0.60917   0.12362   0.00000  Uiso   1.00
C697   C     0.04628   0.57122   0.10867   0.00000  Uiso   1.00
C698   C     0.03536   0.63936   0.10292   0.00000  Uiso   1.00
C699   C     0.13828   0.62699   0.21302   0.00000  Uiso   1.00
C700   C     0.15668   0.63533   0.24781   0.00000  Uiso   1.00
C701   C     0.16559   0.60572   0.27224   0.00000  Uiso   1.00
C702   C     0.02300   0.56461   0.07618   0.00000  Uiso   1.00
C703   C     0.01495   0.63361   0.06842   0.00000  Uiso   1.00
C704   C     0.00719   0.59595   0.05548   0.00000  Uiso   1.00
C705   C     0.06152   0.53960   0.12994   0.00000  Uiso   1.00
C706   C     0.01869   0.52523   0.06267   0.00000  Uiso   1.00
C707   C    -0.00575   0.52034   0.03191   0.00000  Uiso   1.00
C708   C    -0.01869   0.55196   0.00920   0.00000  Uiso   1.00
C709   C    -0.01380   0.58962   0.02156   0.00000  Uiso   1.00
H710   H     0.04916   0.64252   0.21044   0.00000  Uiso   1.00
C711   C     0.08279   0.54707   0.16501   0.00000  Uiso   1.00
C712   C     0.09113   0.58445   0.17709   0.00000  Uiso   1.00
C713   C     0.03450   0.49418   0.08308   0.00000  Uiso   1.00
C714   C     0.05462   0.50079   0.11787   0.00000  Uiso   1.00
C715   C     0.09717   0.51430   0.18801   0.00000  Uiso   1.00
C716   C     0.08624   0.47635   0.17680   0.00000  Uiso   1.00
C717   C     0.06296   0.47089   0.14202   0.00000  Uiso   1.00
C718   C     0.11873   0.59077   0.20727   0.00000  Uiso   1.00
C719   C     0.12908   0.56145   0.23343   0.00000  Uiso   1.00
C720   C     0.11643   0.52379   0.22452   0.00000  Uiso   1.00
C721   C     0.10033   0.44186   0.20124   0.00000  Uiso   1.00
H722   H     0.13023   0.43783   0.19204   0.00000  Uiso   1.00
H723   H     0.08653   0.41426   0.19462   0.00000  Uiso   1.00
C724   C     0.07273   0.61607   0.15869   0.00000  Uiso   1.00
H725   H     0.05865   0.44013   0.13713   0.00000  Uiso   1.00
H726   H     0.00201   0.65603   0.05060   0.00000  Uiso   1.00
H727   H    -0.01121   0.49389   0.01639   0.00000  Uiso   1.00
C728   C     0.02386   0.45249   0.07388   0.00000  Uiso   1.00
C729   C     0.05635   0.43611   0.04945   0.00000  Uiso   1.00
H730   H     0.07187   0.45537   0.02961   0.00000  Uiso   1.00
H731   H    -0.00201   0.45393   0.05606   0.00000  Uiso   1.00
C732   C     0.10091   0.45364   0.24378   0.00000  Uiso   1.00
O733   O     0.11585   0.42116   0.26506   0.00000  Uiso   1.00
C734   C     0.10551   0.41512   0.30530   0.00000  Uiso   1.00
C735   C     0.06267   0.40880   0.31422   0.00000  Uiso   1.00
C736   C     0.05433   0.38839   0.35475   0.00000  Uiso   1.00
H737   H     0.02329   0.38867   0.36108   0.00000  Uiso   1.00
H738   H     0.06670   0.40995   0.37430   0.00000  Uiso   1.00
H739   H     0.05146   0.43841   0.31393   0.00000  Uiso   1.00
H740   H     0.04715   0.39155   0.29265   0.00000  Uiso   1.00
H741   H     0.11787   0.43812   0.32313   0.00000  Uiso   1.00
H742   H     0.12189   0.39040   0.31623   0.00000  Uiso   1.00
C743   C     0.24551   0.64798   0.29438   0.00000  Uiso   1.00
C744   C     0.25586   0.62009   0.32284   0.00000  Uiso   1.00
C745   C     0.24781   0.60572   0.39270   0.00000  Uiso   1.00
C746   C     0.23142   0.62038   0.42576   0.00000  Uiso   1.00
C747   C     0.24407   0.63016   0.36108   0.00000  Uiso   1.00
C748   C     0.22481   0.66408   0.36970   0.00000  Uiso   1.00
S749   S     0.20814   0.66465   0.41828   0.00000  Uiso   1.00
C750   C     0.26649   0.56950   0.38839   0.00000  Uiso   1.00
C751   C     0.26736   0.54621   0.42288   0.00000  Uiso   1.00
C752   C     0.29064   0.50712   0.42375   0.00000  Uiso   1.00
H753   H     0.30300   0.49734   0.45106   0.00000  Uiso   1.00
H754   H     0.31652   0.51660   0.40793   0.00000  Uiso   1.00
C755   C     0.27052   0.47549   0.40391   0.00000  Uiso   1.00
C756   C     0.23257   0.39989   0.39902   0.00000  Uiso   1.00
C757   C     0.20756   0.36596   0.38264   0.00000  Uiso   1.00
C758   C     0.20411   0.16703   0.36567   0.00000  Uiso   1.00
C759   C     0.16415   0.16128   0.38350   0.00000  Uiso   1.00
C760   C     0.02012   0.24666   0.31335   0.00000  Uiso   1.00
C761   C     0.00057   0.28144   0.31479   0.00000  Uiso   1.00
C762   C     0.05721   0.31709   0.34210   0.00000  Uiso   1.00
C763   C     0.01926   0.31709   0.32658   0.00000  Uiso   1.00
C764   C     0.07474   0.35188   0.35619   0.00000  Uiso   1.00
C765   C     0.00604   0.20986   0.30013   0.00000  Uiso   1.00
C766   C     0.03220   0.18054   0.29524   0.00000  Uiso   1.00
C767   C     0.06842   0.18083   0.31048   0.00000  Uiso   1.00
C768   C     0.08366   0.14546   0.31422   0.00000  Uiso   1.00
C769   C     0.02587   0.14432   0.28231   0.00000  Uiso   1.00
N770   N     0.05721   0.12160   0.29524   0.00000  Uiso   1.00
C771   C    -0.01294   0.12534   0.27397   0.00000  Uiso   1.00
C772   C    -0.04398   0.15064   0.29610   0.00000  Uiso   1.00
C773   C    -0.08423   0.14115   0.28116   0.00000  Uiso   1.00
C774   C    -0.09774   0.09774   0.28978   0.00000  Uiso   1.00
H775   H    -0.12908   0.09487   0.29179   0.00000  Uiso   1.00
H776   H    -0.08596   0.09199   0.31853   0.00000  Uiso   1.00
H777   H    -0.09084   0.14633   0.25068   0.00000  Uiso   1.00
H778   H    -0.01524   0.09458   0.28058   0.00000  Uiso   1.00
H779   H    -0.01754   0.12678   0.24292   0.00000  Uiso   1.00
H780   H     0.06181   0.09314   0.29237   0.00000  Uiso   1.00
H781   H     0.00661   0.34526   0.32313   0.00000  Uiso   1.00
C782   C     0.13310   0.17278   0.35245   0.00000  Uiso   1.00
H783   H    -0.10436   0.15811   0.29869   0.00000  Uiso   1.00
H784   H    -0.04370   0.14259   0.32658   0.00000  Uiso   1.00
H785   H     0.16128   0.18284   0.40621   0.00000  Uiso   1.00
H786   H     0.16271   0.13167   0.39442   0.00000  Uiso   1.00
H787   H     0.22711   0.15438   0.38321   0.00000  Uiso   1.00
H788   H     0.21245   0.19750   0.36338   0.00000  Uiso   1.00
H789   H     0.22567   0.34038   0.37890   0.00000  Uiso   1.00
H790   H    -0.07417   0.24580   0.21906   0.00000  Uiso   1.00
C791   C     0.23027   0.59853   0.45997   0.00000  Uiso   1.00
C792   C     0.24723   0.56174   0.45853   0.00000  Uiso   1.00
C793   C    -0.03967   0.74831   0.31105   0.00000  Uiso   1.00
C794   C     0.21676   0.69340   0.34181   0.00000  Uiso   1.00
C795   C     0.22941   0.68449   0.30473   0.00000  Uiso   1.00
H796   H     0.22222   0.70433   0.28173   0.00000  Uiso   1.00
H797   H     0.19664   0.71611   0.34929   0.00000  Uiso   1.00
H798   H    -0.04312   0.80121   0.27426   0.00000  Uiso   1.00
C799   C     0.08136   0.21302   0.33060   0.00000  Uiso   1.00
C800   C     0.05836   0.24666   0.32888   0.00000  Uiso   1.00
C801   C     0.07618   0.28001   0.34526   0.00000  Uiso   1.00
C802   C     0.11327   0.27828   0.36280   0.00000  Uiso   1.00
C803   C     0.10896   0.34613   0.37689   0.00000  Uiso   1.00
C804   C     0.12764   0.31192   0.37947   0.00000  Uiso   1.00
C805   C     0.13195   0.24235   0.36452   0.00000  Uiso   1.00
C806   C     0.11643   0.20957   0.34843   0.00000  Uiso   1.00
H807   H     0.15840   0.24033   0.38149   0.00000  Uiso   1.00
C808   C    -0.03996   0.28518   0.29668   0.00000  Uiso   1.00
C809   C    -0.05548   0.32485   0.28892   0.00000  Uiso   1.00
C810   C    -0.09487   0.32830   0.26736   0.00000  Uiso   1.00
H811   H    -0.10321   0.35791   0.26017   0.00000  Uiso   1.00
H812   H    -0.09142   0.31508   0.23890   0.00000  Uiso   1.00
H813   H    -0.11758   0.31537   0.28518   0.00000  Uiso   1.00
H814   H    -0.05721   0.33951   0.31709   0.00000  Uiso   1.00
H815   H    -0.06095   0.27052   0.31537   0.00000  Uiso   1.00
H816   H     0.33204   0.56777   0.70231   0.00000  Uiso   1.00
H817   H     0.25327   0.64453   0.26419   0.00000  Uiso   1.00
H818   H     0.08481   0.67155   0.18945   0.00000  Uiso   1.00
O819   O     0.17163   0.53989   0.28863   0.00000  Uiso   1.00
C820   C     0.20210   0.54707   0.31709   0.00000  Uiso   1.00
C821   C     0.23918   0.55742   0.29352   0.00000  Uiso   1.00
C822   C     0.27052   0.58071   0.31335   0.00000  Uiso   1.00
H823   H     0.29352   0.58330   0.29179   0.00000  Uiso   1.00
H824   H     0.22998   0.57065   0.26621   0.00000  Uiso   1.00
H825   H     0.25097   0.53040   0.28173   0.00000  Uiso   1.00
H826   H     0.19146   0.56749   0.33865   0.00000  Uiso   1.00
H827   H     0.20871   0.52063   0.33319   0.00000  Uiso   1.00
H828   H     0.33175   0.59020   0.65833   0.00000  Uiso   1.00
H829   H     0.26074   0.67903   0.69168   0.00000  Uiso   1.00
C830   C     0.13569   0.79316   0.34584   0.00000  Uiso   1.00
H831   H     0.14776   0.79977   0.31767   0.00000  Uiso   1.00
H832   H     0.07417   0.71410   0.26103   0.00000  Uiso   1.00
H833   H     0.34009   0.53040   0.63159   0.00000  Uiso   1.00
H834   H     0.19664   0.37372   0.35389   0.00000  Uiso   1.00
H835   H     0.07733   0.42260   0.06842   0.00000  Uiso   1.00
H836   H     0.01897   0.43208   0.09774   0.00000  Uiso   1.00
H837   H     0.07015   0.45738   0.25068   0.00000  Uiso   1.00
H838   H    -0.09343   0.56806   0.15639   0.00000  Uiso   1.00
H839   H    -0.03680   0.34124   0.26966   0.00000  Uiso   1.00
H840   H    -0.03938   0.27196   0.26793   0.00000  Uiso   1.00
C841   C     0.21302   0.61607   0.49705   0.00000  Uiso   1.00
C842   C     0.22136   0.59250   0.53299   0.00000  Uiso   1.00
C843   C     0.21504   0.55024   0.52436   0.00000  Uiso   1.00
C844   C     0.24522   0.53816   0.49677   0.00000  Uiso   1.00
H845   H     0.22538   0.64539   0.49878   0.00000  Uiso   1.00
H846   H     0.18255   0.62268   0.49217   0.00000  Uiso   1.00
H847   H     0.25155   0.59853   0.53989   0.00000  Uiso   1.00
H848   H     0.18657   0.54679   0.51114   0.00000  Uiso   1.00
H849   H     0.27339   0.54190   0.51056   0.00000  Uiso   1.00
H850   H     0.23717   0.50798   0.49274   0.00000  Uiso   1.00
C851   C     0.29553   0.44128   0.39557   0.00000  Uiso   1.00
C852   C     0.21072   0.43697   0.40707   0.00000  Uiso   1.00
C853   C     0.27224   0.40851   0.37430   0.00000  Uiso   1.00
H854   H     0.24206   0.39212   0.42806   0.00000  Uiso   1.00
H855   H     0.30617   0.43122   0.42346   0.00000  Uiso   1.00
H856   H     0.31939   0.45393   0.37890   0.00000  Uiso   1.00
H857   H     0.18542   0.43093   0.42518   0.00000  Uiso   1.00
H858   H     0.19980   0.45048   0.38062   0.00000  Uiso   1.00
H859   H     0.28978   0.38235   0.37631   0.00000  Uiso   1.00
H860   H     0.26707   0.41282   0.34354   0.00000  Uiso   1.00
H861   H     0.25931   0.48670   0.37660   0.00000  Uiso   1.00
C862   C     0.19549   0.60112   0.57065   0.00000  Uiso   1.00
C863   C     0.21159   0.53155   0.56490   0.00000  Uiso   1.00
C864   C     0.19347   0.56231   0.59307   0.00000  Uiso   1.00
H865   H     0.20727   0.62556   0.58675   0.00000  Uiso   1.00
H866   H     0.16674   0.61032   0.56087   0.00000  Uiso   1.00
H867   H     0.24177   0.52580   0.57266   0.00000  Uiso   1.00
H868   H     0.19376   0.50539   0.56662   0.00000  Uiso   1.00
H869   H     0.16214   0.55685   0.59451   0.00000  Uiso   1.00
O870   O     0.27656   0.57870   0.60658   0.00000  Uiso   1.00
H871   H     0.30502   0.50798   0.69771   0.00000  Uiso   1.00
H872   H     0.26391   0.49907   0.66494   0.00000  Uiso   1.00
C873   C     0.11787   0.14000   0.33405   0.00000  Uiso   1.00
H874   H     0.13080   0.11125   0.33578   0.00000  Uiso   1.00
O875   O     0.16156   0.31335   0.39960   0.00000  Uiso   1.00
C876   C    -0.07417   0.75866   0.22538   0.00000  Uiso   1.00
H877   H    -0.09084   0.77648   0.24551   0.00000  Uiso   1.00
H878   H    -0.09401   0.75004   0.20239   0.00000  Uiso   1.00
C879   C     0.03996   0.57812   0.31910   0.00000  Uiso   1.00
H880   H     0.06612   0.57554   0.30157   0.00000  Uiso   1.00
H881   H     0.02674   0.54937   0.32169   0.00000  Uiso   1.00
H882   H     0.05433   0.58243   0.34670   0.00000  Uiso   1.00
C883   C     0.17191   0.35389   0.40678   0.00000  Uiso   1.00
H884   H     0.17651   0.35676   0.43812   0.00000  Uiso   1.00
O885   O     0.23746   0.46486   0.42605   0.00000  Uiso   1.00
H886   H    -0.08481   0.07906   0.26793   0.00000  Uiso   1.00
C887   C     0.03019   0.68047   0.16156   0.00000  Uiso   1.00
C888   C     0.02645   0.72301   0.17393   0.00000  Uiso   1.00
C889   C     0.04111   0.68162   0.11844   0.00000  Uiso   1.00
C890   C     0.01265   0.71611   0.10407   0.00000  Uiso   1.00
C891   C     0.00805   0.74400   0.13742   0.00000  Uiso   1.00
H892   H     0.00172   0.66782   0.16703   0.00000  Uiso   1.00
H893   H     0.00805   0.72761   0.19922   0.00000  Uiso   1.00
H894   H     0.05376   0.73480   0.18456   0.00000  Uiso   1.00
H895   H     0.07130   0.69110   0.11700   0.00000  Uiso   1.00
H896   H    -0.01667   0.70749   0.09602   0.00000  Uiso   1.00
H897   H     0.02559   0.73394   0.08136   0.00000  Uiso   1.00
H898   H     0.02674   0.76901   0.13339   0.00000  Uiso   1.00
C899   C     0.22280   0.79460   0.33549   0.00000  Uiso   1.00
H900   H     0.21159   0.82334   0.32888   0.00000  Uiso   1.00
H901   H     0.21417   0.77390   0.31335   0.00000  Uiso   1.00
H902   H     0.25413   0.79833   0.33808   0.00000  Uiso   1.00
O903   O    -0.03996   0.77763   0.21159   0.00000  Uiso   1.00
C904   C    -0.04082   0.79057   0.17163   0.00000  Uiso   1.00
C905   C    -0.03565   0.75521   0.14460   0.00000  Uiso   1.00
H906   H    -0.06612   0.80696   0.16271   0.00000  Uiso   1.00
H907   H    -0.01639   0.81041   0.16731   0.00000  Uiso   1.00
H908   H    -0.05232   0.73192   0.15754   0.00000  Uiso   1.00
H909   H    -0.04686   0.76470   0.11643   0.00000  Uiso   1.00
H910   H     0.04427   0.41253   0.03191   0.00000  Uiso   1.00
C911   C     0.12534   0.48958   0.25241   0.00000  Uiso   1.00
H912   H     0.12103   0.50050   0.28173   0.00000  Uiso   1.00
H913   H     0.15581   0.48182   0.24838   0.00000  Uiso   1.00
C914   C    -0.08538   0.34038   0.12735   0.00000  Uiso   1.00
H915   H    -0.09659   0.34584   0.15639   0.00000  Uiso   1.00
H916   H    -0.05663   0.32830   0.13310   0.00000  Uiso   1.00
C917   C    -0.10694   0.45796   0.11212   0.00000  Uiso   1.00
H918   H    -0.08481   0.47607   0.09889   0.00000  Uiso   1.00
C919   C    -0.01869   0.69225   0.40535   0.00000  Uiso   1.00
H920   H    -0.04140   0.67242   0.41483   0.00000  Uiso   1.00
H921   H     0.00690   0.67472   0.41167   0.00000  Uiso   1.00
H922   H     0.20871   0.15639   0.33635   0.00000  Uiso   1.00
C923   C     0.29323   0.69886   0.57122   0.00000  Uiso   1.00
H924   H     0.31163   0.67472   0.56289   0.00000  Uiso   1.00
H925   H     0.31450   0.72071   0.57927   0.00000  Uiso   1.00
C926   C    -0.03277   0.61751  -0.00575   0.00000  Uiso   1.00
H927   H    -0.04772   0.64281   0.00604   0.00000  Uiso   1.00
H928   H    -0.01207   0.62929  -0.02674   0.00000  Uiso   1.00
O929   O     0.08279   0.76297   0.44732   0.00000  Uiso   1.00
C930   C     0.14748   0.71669   0.61952   0.00000  Uiso   1.00
H931   H     0.13080   0.68995   0.61607   0.00000  Uiso   1.00
H932   H     0.12620   0.73854   0.62699   0.00000  Uiso   1.00
H933   H     0.16501   0.71525   0.64597   0.00000  Uiso   1.00
C934   C    -0.16501   0.53701  -0.01179   0.00000  Uiso   1.00
H935   H    -0.13713   0.55167  -0.01466   0.00000  Uiso   1.00
H936   H    -0.18284   0.55570   0.00632   0.00000  Uiso   1.00
C937   C     0.28921   0.56231   0.35159   0.00000  Uiso   1.00
H938   H     0.31853   0.57209   0.35763   0.00000  Uiso   1.00
H939   H     0.29323   0.53155   0.34584   0.00000  Uiso   1.00
C940   C    -0.14288   0.48210   0.13138   0.00000  Uiso   1.00
C941   C    -0.13310   0.49820   0.17278   0.00000  Uiso   1.00
H942   H    -0.16933   0.46457   0.13425   0.00000  Uiso   1.00
H943   H    -0.15323   0.50654   0.11413   0.00000  Uiso   1.00
H944   H    -0.14173   0.47492   0.19232   0.00000  Uiso   1.00
H945   H    -0.15064   0.52293   0.18140   0.00000  Uiso   1.00
C946   C    -0.03680   0.19635   0.29409   0.00000  Uiso   1.00
H947   H    -0.05548   0.20842   0.31652   0.00000  Uiso   1.00
H948   H    -0.04600   0.20871   0.26649   0.00000  Uiso   1.00
C949   C     0.13339   0.37516   0.39701   0.00000  Uiso   1.00
H950   H     0.13655   0.40046   0.37861   0.00000  Uiso   1.00
H951   H     0.11873   0.38350   0.42375   0.00000  Uiso   1.00
H952   H    -0.06296   0.26161   0.15093   0.00000  Uiso   1.00
O953   O     0.13972   0.73365   0.22912   0.00000  Uiso   1.00
O954   O     0.10349   0.78482   0.21906   0.00000  Uiso   1.00
H955   H     0.14518   0.74601   0.20497   0.00000  Uiso   1.00
C956   C    -0.04283   0.76843   0.38034   0.00000  Uiso   1.00
H957   H    -0.05433   0.84692   0.32255   0.00000  Uiso   1.00
C958   C     0.05951   0.65373   0.18284   0.00000  Uiso   1.00
C959   C     0.15524   0.56864   0.26362   0.00000  Uiso   1.00
H960   H     0.17508   0.61377   0.30099   0.00000  Uiso   1.00
H961   H     0.16559   0.66523   0.25155   0.00000  Uiso   1.00
H962   H     0.13914   0.65114   0.19290   0.00000  Uiso   1.00
C963   C     0.69082   0.65977   0.65660   0.00000  Uiso   1.00
C964   C     0.69283   0.69743   0.64453   0.00000  Uiso   1.00
C965   C     0.74831   0.70806   0.68852   0.00000  Uiso   1.00
C966   C     0.72071   0.72301   0.66092   0.00000  Uiso   1.00
C967   C     0.72215   0.76326   0.65201   0.00000  Uiso   1.00
C968   C     0.77188   0.73307   0.70921   0.00000  Uiso   1.00
C969   C     0.66695   0.71439   0.61837   0.00000  Uiso   1.00
C970   C     0.66523   0.75377   0.61003   0.00000  Uiso   1.00
C971   C     0.77160   0.77476   0.70088   0.00000  Uiso   1.00
C972   C     0.74544   0.78885   0.67472   0.00000  Uiso   1.00
C973   C     0.69599   0.77735   0.62469   0.00000  Uiso   1.00
C974   C     0.69743   0.81616   0.61837   0.00000  Uiso   1.00
C975   C     0.74486   0.82737   0.66839   0.00000  Uiso   1.00
C976   C     0.72273   0.84318   0.63849   0.00000  Uiso   1.00
C977   C     0.71956   0.64654   0.68219   0.00000  Uiso   1.00
C978   C     0.63389   0.76240   0.58675   0.00000  Uiso   1.00
C979   C     0.62987   0.70231   0.60716   0.00000  Uiso   1.00
N980   N     0.60860   0.73192   0.58905   0.00000  Uiso   1.00
H981   H     0.58014   0.73595   0.59221   0.00000  Uiso   1.00
C982   C     0.74946   0.66810   0.69858   0.00000  Uiso   1.00
H983   H     0.76728   0.84692   0.67845   0.00000  Uiso   1.00
H984   H     0.78942   0.79345   0.71870   0.00000  Uiso   1.00
H985   H     0.67788   0.82794   0.59681   0.00000  Uiso   1.00
H986   H     0.67127   0.63821   0.64511   0.00000  Uiso   1.00
H987   H     0.62038   0.79057   0.58761   0.00000  Uiso   1.00
H988   H     0.61061   0.68219   0.62124   0.00000  Uiso   1.00
H989   H     0.71640   0.61550   0.68708   0.00000  Uiso   1.00
C990   C     0.78051   0.64769   0.72244   0.00000  Uiso   1.00
C991   C     0.81501   0.67788   0.73336   0.00000  Uiso   1.00
C992   C     0.79661   0.71956   0.74342   0.00000  Uiso   1.00
C993   C     0.71870   0.88544   0.63389   0.00000  Uiso   1.00
C994   C     0.68334   0.90039   0.65833   0.00000  Uiso   1.00
C995   C     0.68852   0.89579   0.70260   0.00000  Uiso   1.00
H996   H     0.67702   0.93057   0.65057   0.00000  Uiso   1.00
H997   H     0.71640   0.89464   0.60371   0.00000  Uiso   1.00
H998   H     0.74371   0.89924   0.64741   0.00000  Uiso   1.00
H999   H     0.82133   0.73796   0.74975   0.00000  Uiso   1.00
H1000  H     0.83398   0.66667   0.75607   0.00000  Uiso   1.00
H1001  H     0.83571   0.67989   0.70950   0.00000  Uiso   1.00
H1002  H     0.79345   0.62067   0.71209   0.00000  Uiso   1.00
H1003  H     0.76930   0.63734   0.75004   0.00000  Uiso   1.00
C1004  C     0.59940   0.81328   0.91965   0.00000  Uiso   1.00
C1005  C     0.63849   0.81558   0.92856   0.00000  Uiso   1.00
C1006  C     0.65229   0.84117   0.95702   0.00000  Uiso   1.00
C1007  C     0.66494   0.79460   0.90528   0.00000  Uiso   1.00
C1008  C     0.65143   0.77102   0.87566   0.00000  Uiso   1.00
C1009  C     0.61320   0.76700   0.86877   0.00000  Uiso   1.00
C1010  C     0.58560   0.78827   0.89061   0.00000  Uiso   1.00
C1011  C     0.69024   0.83915   0.96795   0.00000  Uiso   1.00
C1012  C     0.70318   0.79258   0.91649   0.00000  Uiso   1.00
C1013  C     0.71554   0.81558   0.94725   0.00000  Uiso   1.00
C1014  C     0.77878   0.78655   0.93834   0.00000  Uiso   1.00
C1015  C     0.73077   0.76872   0.89550   0.00000  Uiso   1.00
C1016  C     0.62584   0.86647   0.97600   0.00000  Uiso   1.00
C1017  C     0.70231   0.85957   1.00072   0.00000  Uiso   1.00
C1018  C     0.74026   0.85640   1.01567   0.00000  Uiso   1.00
C1019  C     0.76757   0.83312   0.99353   0.00000  Uiso   1.00
C1020  C     0.75464   0.81472   0.95903   0.00000  Uiso   1.00
H1021  H     0.80897   0.78195   0.94437   0.00000  Uiso   1.00
C1022  C     0.68047   0.75090   0.85123   0.00000  Uiso   1.00
C1023  C     0.71956   0.74946   0.86388   0.00000  Uiso   1.00
C1024  C     0.58531   0.86618   0.96766   0.00000  Uiso   1.00
N1025  N     0.76613   0.76498   0.90815   0.00000  Uiso   1.00
C1026  C     0.57324   0.83714   0.94351   0.00000  Uiso   1.00
H1027  H     0.54190   0.83513   0.94064   0.00000  Uiso   1.00
C1028  C     0.74687   0.72100   0.84002   0.00000  Uiso   1.00
C1029  C     0.76700   0.74141   0.80408   0.00000  Uiso   1.00
H1030  H     0.79546   0.75119   0.81386   0.00000  Uiso   1.00
H1031  H     0.75004   0.76613   0.79345   0.00000  Uiso   1.00
H1032  H     0.76930   0.70691   0.85727   0.00000  Uiso   1.00
H1033  H     0.72991   0.69685   0.82823   0.00000  Uiso   1.00
O1034  O     0.77275   0.71238   0.77648   0.00000  Uiso   1.00
C1035  C     0.67587   0.88630   1.01768   0.00000  Uiso   1.00
C1036  C     0.68507   0.90413   1.05304   0.00000  Uiso   1.00
C1037  C     0.71985   0.89550   1.07086   0.00000  Uiso   1.00
C1038  C     0.73365   0.91447   1.10852   0.00000  Uiso   1.00
C1039  C     0.71870   0.89090   1.14273   0.00000  Uiso   1.00
C1040  C     0.73192   0.91016   1.18068   0.00000  Uiso   1.00
C1041  C     0.77447   0.90240   1.19247   0.00000  Uiso   1.00
H1042  H     0.72876   0.94179   1.18212   0.00000  Uiso   1.00
H1043  H     0.68708   0.89090   1.13986   0.00000  Uiso   1.00
H1044  H     0.72215   0.85957   1.14245   0.00000  Uiso   1.00
H1045  H     0.72301   0.94409   1.10910   0.00000  Uiso   1.00
H1046  H     0.76498   0.91649   1.10680   0.00000  Uiso   1.00
H1047  H     0.66408   0.92022   1.07000   0.00000  Uiso   1.00
C1048  C     0.55254   0.89176   0.98864   0.00000  Uiso   1.00
C1049  C     0.55455   0.89579   1.03435   0.00000  Uiso   1.00
C1050  C     0.56174   0.85324   1.05189   0.00000  Uiso   1.00
O1051  O     0.54506   0.85382   1.09013   0.00000  Uiso   1.00
C1052  C     0.56806   0.86963   1.12204   0.00000  Uiso   1.00
C1053  C     0.58790   0.83743   1.14446   0.00000  Uiso   1.00
C1054  C     0.59221   0.88860   1.19879   0.00000  Uiso   1.00
H1055  H     0.60888   0.82392   1.12491   0.00000  Uiso   1.00
H1056  H     0.57036   0.81386   1.15625   0.00000  Uiso   1.00
H1057  H     0.59278   0.88803   1.11456   0.00000  Uiso   1.00
H1058  H     0.59250   0.84634   1.05362   0.00000  Uiso   1.00
H1059  H     0.54679   0.83024   1.03637   0.00000  Uiso   1.00
H1060  H     0.57726   0.91649   1.04183   0.00000  Uiso   1.00
H1061  H     0.52781   0.90671   1.04672   0.00000  Uiso   1.00
H1062  H     0.52408   0.88141   0.97973   0.00000  Uiso   1.00
H1063  H     0.55167   0.92051   0.97600   0.00000  Uiso   1.00
C1064  C     0.59997   0.74515   0.83111   0.00000  Uiso   1.00
C1065  C     0.62901   0.75119   0.79920   0.00000  Uiso   1.00
C1066  C     0.61492   0.73480   0.75809   0.00000  Uiso   1.00
H1067  H     0.58330   0.73509   0.75521   0.00000  Uiso   1.00
H1068  H     0.62009   0.70346   0.75636   0.00000  Uiso   1.00
H1069  H     0.63821   0.78137   0.79575   0.00000  Uiso   1.00
H1070  H     0.57209   0.75521   0.82018   0.00000  Uiso   1.00
H1071  H     0.59652   0.71381   0.83513   0.00000  Uiso   1.00
C1072  C     0.66235   0.83197   0.72445   0.00000  Uiso   1.00
C1073  C     0.63016   0.75751   0.72474   0.00000  Uiso   1.00
S1074  S     0.61665   0.80782   0.72646   0.00000  Uiso   1.00
H1075  H     0.61952   0.74486   0.69771   0.00000  Uiso   1.00
C1076  C     0.65258   0.87509   0.72416   0.00000  Uiso   1.00
C1077  C     0.64194   0.89378   0.76383   0.00000  Uiso   1.00
C1078  C     0.62584   0.86934   0.79661   0.00000  Uiso   1.00
H1079  H     0.64367   0.84347   0.80006   0.00000  Uiso   1.00
H1080  H     0.59623   0.85899   0.79115   0.00000  Uiso   1.00
H1081  H     0.62786   0.88113   0.70576   0.00000  Uiso   1.00
C1082  C     0.50050   0.99066   1.25514   0.00000  Uiso   1.00
C1083  C     0.55800   0.94955   1.24048   0.00000  Uiso   1.00
C1084  C     0.53960   0.97657   1.26376   0.00000  Uiso   1.00
C1085  C     0.55656   0.98979   1.29884   0.00000  Uiso   1.00
C1086  C     0.59480   0.93287   1.25255   0.00000  Uiso   1.00
C1087  C     0.47952   1.01251   1.28274   0.00000  Uiso   1.00
C1088  C     0.49878   1.02515   1.31551   0.00000  Uiso   1.00
C1089  C     0.61291   0.95098   1.28360   0.00000  Uiso   1.00
C1090  C     0.59307   0.97801   1.30746   0.00000  Uiso   1.00
C1091  C     0.53644   1.01308   1.32413   0.00000  Uiso   1.00
C1092  C     0.50165   0.94926   1.19822   0.00000  Uiso   1.00
C1093  C     0.47176   1.04384   1.33707   0.00000  Uiso   1.00
C1094  C     0.44186   1.02515   1.28705   0.00000  Uiso   1.00
N1095  N     0.43496   1.04729   1.32040   0.00000  Uiso   1.00
H1096  H     0.41081   1.04585   1.33650   0.00000  Uiso   1.00
C1097  C     0.53903   0.93489   1.20799   0.00000  Uiso   1.00
C1098  C     0.55857   0.90384   1.18471   0.00000  Uiso   1.00
C1099  C     0.63734   0.83456   1.19822   0.00000  Uiso   1.00
C1100  C     0.65114   0.84174   1.23415   0.00000  Uiso   1.00
C1101  C     0.63648   0.87423   1.25399   0.00000  Uiso   1.00
C1102  C     0.48469   0.97743   1.22035   0.00000  Uiso   1.00
H1103  H     0.61061   0.99382   1.32816   0.00000  Uiso   1.00
H1104  H     0.54765   1.01883   1.35288   0.00000  Uiso   1.00
H1105  H     0.41742   1.00733   1.27871   0.00000  Uiso   1.00
H1106  H     0.64511   0.80782   1.18384   0.00000  Uiso   1.00
H1107  H     0.48642   0.93805   1.17292   0.00000  Uiso   1.00
C1108  C     0.47664   1.05218   1.37991   0.00000  Uiso   1.00
C1109  C     0.48268   1.09472   1.39112   0.00000  Uiso   1.00
C1110  C     0.50913   1.11744   1.36266   0.00000  Uiso   1.00
C1111  C     0.54909   1.09530   1.35863   0.00000  Uiso   1.00
O1112  O     0.56375   1.07748   1.38565   0.00000  Uiso   1.00
C1113  C     0.57554   1.11370   1.32960   0.00000  Uiso   1.00
C1114  C     0.61118   1.08840   1.31896   0.00000  Uiso   1.00
C1115  C     0.63274   1.10622   1.28504   0.00000  Uiso   1.00
H1116  H     0.65919   1.08898   1.28762   0.00000  Uiso   1.00
H1117  H     0.60371   1.05793   1.31580   0.00000  Uiso   1.00
H1118  H     0.63159   1.08380   1.34282   0.00000  Uiso   1.00
H1119  H     0.55742   1.12290   1.30545   0.00000  Uiso   1.00
H1120  H     0.49705   1.11657   1.33362   0.00000  Uiso   1.00
H1121  H     0.49245   1.10191   1.42044   0.00000  Uiso   1.00
H1122  H     0.50367   1.03694   1.38709   0.00000  Uiso   1.00
H1123  H     0.45336   1.03982   1.39715   0.00000  Uiso   1.00
C1124  C     0.65402   1.16803   1.25399   0.00000  Uiso   1.00
C1125  C     0.66379   1.20799   1.25428   0.00000  Uiso   1.00
C1126  C     0.65488   1.22927   1.28820   0.00000  Uiso   1.00
C1127  C     0.63648   1.15050   1.28705   0.00000  Uiso   1.00
C1128  C     0.68650   1.28475   1.25658   0.00000  Uiso   1.00
C1129  C     0.62211   1.17148   1.31867   0.00000  Uiso   1.00
C1130  C     0.66695   1.26865   1.28906   0.00000  Uiso   1.00
C1131  C     0.67960   1.16631   1.18816   0.00000  Uiso   1.00
C1132  C     0.66063   1.14705   1.21863   0.00000  Uiso   1.00
C1133  C     0.64252   1.10852   1.21403   0.00000  Uiso   1.00
C1134  C     0.68650   1.14417   1.15481   0.00000  Uiso   1.00
C1135  C     0.66925   1.10824   1.14762   0.00000  Uiso   1.00
C1136  C     0.64827   1.08840   1.17838   0.00000  Uiso   1.00
C1137  C     0.68852   1.20627   1.19132   0.00000  Uiso   1.00
H1138  H     0.67759   1.09530   1.12031   0.00000  Uiso   1.00
C1139  C     0.66264   1.28734   1.32586   0.00000  Uiso   1.00
C1140  C     0.64396   1.26923   1.35748   0.00000  Uiso   1.00
N1141  N     0.69196   1.26491   1.22409   0.00000  Uiso   1.00
C1142  C     0.63447   1.21115   1.31925   0.00000  Uiso   1.00
C1143  C     0.62958   1.23272   1.35346   0.00000  Uiso   1.00
C1144  C     0.68104   1.22639   1.22380   0.00000  Uiso   1.00
C1145  C     0.67874   1.32557   1.33736   0.00000  Uiso   1.00
C1146  C     0.67615   1.32356   1.38249   0.00000  Uiso   1.00
C1147  C     0.71726   1.30947   1.39888   0.00000  Uiso   1.00
H1148  H     0.71784   1.31177   1.43021   0.00000  Uiso   1.00
H1149  H     0.72014   1.27814   1.39572   0.00000  Uiso   1.00
H1150  H     0.66580   1.35029   1.39572   0.00000  Uiso   1.00
H1151  H     0.70778   1.33333   1.32758   0.00000  Uiso   1.00
H1152  H     0.66293   1.34972   1.32500   0.00000  Uiso   1.00
H1153  H     0.69858   1.31378   1.25830   0.00000  Uiso   1.00
H1154  H     0.70289   1.22122   1.16774   0.00000  Uiso   1.00
H1155  H     0.70663   1.15423   1.13325   0.00000  Uiso   1.00
H1156  H     0.62153   1.21719   1.37933   0.00000  Uiso   1.00
C1157  C     0.63016   1.04873   1.16889   0.00000  Uiso   1.00
C1158  C     0.65862   1.01624   1.16832   0.00000  Uiso   1.00
C1159  C     0.64712   0.97312   1.15768   0.00000  Uiso   1.00
H1160  H     0.61923   0.96593   1.17091   0.00000  Uiso   1.00
H1161  H     0.64827   0.96823   1.12635   0.00000  Uiso   1.00
H1162  H     0.68104   1.02717   1.14877   0.00000  Uiso   1.00
H1163  H     0.67242   1.01509   1.19678   0.00000  Uiso   1.00
H1164  H     0.60457   1.04068   1.18557   0.00000  Uiso   1.00
O1165  O     0.75119   1.32960   1.38249   0.00000  Uiso   1.00
C1166  C     0.78942   1.32011   1.39629   0.00000  Uiso   1.00
C1167  C     0.80092   1.27785   1.38364   0.00000  Uiso   1.00
C1168  C     0.79057   1.26348   1.34282   0.00000  Uiso   1.00
C1169  C     0.79747   1.29625   1.31378   0.00000  Uiso   1.00
H1170  H     0.82478   1.31120   1.31925   0.00000  Uiso   1.00
H1171  H     0.77361   1.31666   1.31781   0.00000  Uiso   1.00
H1172  H     0.76010   1.25600   1.34081   0.00000  Uiso   1.00
H1173  H     0.83139   1.27440   1.39112   0.00000  Uiso   1.00
H1174  H     0.78655   1.26003   1.40549   0.00000  Uiso   1.00
H1175  H     0.80868   1.33678   1.37761   0.00000  Uiso   1.00
H1176  H     0.79603   1.32816   1.42619   0.00000  Uiso   1.00
C1177  C     0.79632   1.15481   1.19046   0.00000  Uiso   1.00
C1178  C     0.79230   1.19534   1.18298   0.00000  Uiso   1.00
C1179  C     0.79891   1.13957   1.22869   0.00000  Uiso   1.00
C1180  C     0.82306   1.08553   1.08323   0.00000  Uiso   1.00
C1181  C     0.82823   1.05994   1.05189   0.00000  Uiso   1.00
C1182  C     0.81357   1.07086   1.01596   0.00000  Uiso   1.00
C1183  C     0.79460   1.21892   1.21460   0.00000  Uiso   1.00
C1184  C     0.80552   1.16487   1.25945   0.00000  Uiso   1.00
C1185  C     0.80121   1.20454   1.25370   0.00000  Uiso   1.00
C1186  C     0.78195   1.20770   1.14676   0.00000  Uiso   1.00
C1187  C     0.78712   1.26003   1.20914   0.00000  Uiso   1.00
C1188  C     0.78913   1.28676   1.24048   0.00000  Uiso   1.00
C1189  C     0.79690   1.27268   1.27699   0.00000  Uiso   1.00
C1190  C     0.80264   1.23300   1.28389   0.00000  Uiso   1.00
H1191  H     0.78137   1.06713   1.14360   0.00000  Uiso   1.00
C1192  C     0.78051   1.18097   1.11542   0.00000  Uiso   1.00
C1193  C     0.79143   1.14130   1.11830   0.00000  Uiso   1.00
C1194  C     0.77735   1.27440   1.17033   0.00000  Uiso   1.00
C1195  C     0.77361   1.24738   1.14130   0.00000  Uiso   1.00
C1196  C     0.76843   1.19419   1.07690   0.00000  Uiso   1.00
C1197  C     0.75550   1.23300   1.07144   0.00000  Uiso   1.00
C1198  C     0.76010   1.25830   1.10392   0.00000  Uiso   1.00
C1199  C     0.79718   1.11830   1.08265   0.00000  Uiso   1.00
C1200  C     0.78827   1.13353   1.04557   0.00000  Uiso   1.00
C1201  C     0.76872   1.17004   1.04413   0.00000  Uiso   1.00
C1202  C     0.74112   1.25025   1.03464   0.00000  Uiso   1.00
H1203  H     0.76326   1.26606   1.01825   0.00000  Uiso   1.00
H1204  H     0.72071   1.27325   1.04125   0.00000  Uiso   1.00
C1205  C     0.79546   1.12836   1.15653   0.00000  Uiso   1.00
H1206  H     0.75579   1.28877   1.09846   0.00000  Uiso   1.00
H1207  H     0.80839   1.15423   1.28877   0.00000  Uiso   1.00
H1208  H     0.78655   1.31781   1.23530   0.00000  Uiso   1.00
C1209  C     0.76728   1.31810   1.16228   0.00000  Uiso   1.00
C1210  C     0.80006   1.34225   1.14273   0.00000  Uiso   1.00
H1211  H     0.80897   1.33132   1.11427   0.00000  Uiso   1.00
H1212  H     0.76355   1.33563   1.18816   0.00000  Uiso   1.00
C1213  C     0.72416   1.21863   1.00676   0.00000  Uiso   1.00
O1214  O     0.71496   1.23070   0.96852   0.00000  Uiso   1.00
C1215  C     0.73135   1.26463   0.95070   0.00000  Uiso   1.00
C1216  C     0.71726   1.30574   0.96795   0.00000  Uiso   1.00
C1217  C     0.67242   1.30976   0.96536   0.00000  Uiso   1.00
H1218  H     0.66120   1.29826   0.93805   0.00000  Uiso   1.00
H1219  H     0.66379   1.33966   0.95875   0.00000  Uiso   1.00
H1220  H     0.73077   1.31378   0.99526   0.00000  Uiso   1.00
H1221  H     0.73192   1.32787   0.95127   0.00000  Uiso   1.00
H1222  H     0.72129   1.26405   0.92080   0.00000  Uiso   1.00
H1223  H     0.76269   1.26146   0.95213   0.00000  Uiso   1.00
C1224  C     0.87049   1.08121   0.86359   0.00000  Uiso   1.00
C1225  C     0.83024   1.07604   0.86762   0.00000  Uiso   1.00
C1226  C     0.77648   1.02803   0.87078   0.00000  Uiso   1.00
C1227  C     0.76786   0.99152   0.88256   0.00000  Uiso   1.00
C1228  C     0.81673   1.03809   0.87222   0.00000  Uiso   1.00
C1229  C     0.84260   1.00733   0.87796   0.00000  Uiso   1.00
S1230  S     0.81386   0.96795   0.89061   0.00000  Uiso   1.00
C1231  C     0.74745   1.05390   0.86330   0.00000  Uiso   1.00
C1232  C     0.70778   1.04212   0.86474   0.00000  Uiso   1.00
C1233  C     0.67385   1.07058   0.85784   0.00000  Uiso   1.00
H1234  H     0.65172   1.05591   0.84088   0.00000  Uiso   1.00
H1235  H     0.68449   1.09760   0.84490   0.00000  Uiso   1.00
C1236  C     0.65431   1.08380   0.89464   0.00000  Uiso   1.00
C1237  C     0.61808   1.14647   0.94265   0.00000  Uiso   1.00
C1238  C     0.59163   1.16315   0.97743   0.00000  Uiso   1.00
C1239  C     0.57381   1.19937   1.22265   0.00000  Uiso   1.00
C1240  C     0.58732   1.21115   1.18269   0.00000  Uiso   1.00
C1241  C     0.66120   1.36151   1.10939   0.00000  Uiso   1.00
C1242  C     0.67702   1.37674   1.07259   0.00000  Uiso   1.00
C1243  C     0.65517   1.31810   1.03780   0.00000  Uiso   1.00
C1244  C     0.67615   1.35374   1.03838   0.00000  Uiso   1.00
C1245  C     0.65057   1.29797   1.00072   0.00000  Uiso   1.00
C1246  C     0.66350   1.38163   1.14561   0.00000  Uiso   1.00
C1247  C     0.64108   1.36611   1.17723   0.00000  Uiso   1.00
C1248  C     0.62527   1.33075   1.17493   0.00000  Uiso   1.00
C1249  C     0.61406   1.31867   1.20943   0.00000  Uiso   1.00
C1250  C     0.63993   1.37646   1.21604   0.00000  Uiso   1.00
N1251  N     0.62527   1.34455   1.23760   0.00000  Uiso   1.00
C1252  C     0.67155   1.40348   1.22984   0.00000  Uiso   1.00
C1253  C     0.70433   1.41239   1.19822   0.00000  Uiso   1.00
C1254  C     0.72962   1.44775   1.21000   0.00000  Uiso   1.00
C1255  C     0.76211   1.45810   1.17953   0.00000  Uiso   1.00
H1256  H     0.77993   1.48225   1.18988   0.00000  Uiso   1.00
H1257  H     0.75061   1.46615   1.15107   0.00000  Uiso   1.00
H1258  H     0.74630   1.44143   1.23617   0.00000  Uiso   1.00
H1259  H     0.68679   1.39054   1.25428   0.00000  Uiso   1.00
H1260  H     0.65890   1.43050   1.24019   0.00000  Uiso   1.00
H1261  H     0.61780   1.34541   1.26578   0.00000  Uiso   1.00
H1262  H     0.68765   1.36726   1.01251   0.00000  Uiso   1.00
C1263  C     0.59853   1.25543   1.18011   0.00000  Uiso   1.00
H1264  H     0.71180   1.47362   1.21345   0.00000  Uiso   1.00
H1265  H     0.72273   1.38652   1.19879   0.00000  Uiso   1.00
H1266  H     0.56461   1.20310   1.16228   0.00000  Uiso   1.00
H1267  H     0.61032   1.19103   1.17436   0.00000  Uiso   1.00
H1268  H     0.57784   1.16918   1.23099   0.00000  Uiso   1.00
H1269  H     0.54305   1.20627   1.22582   0.00000  Uiso   1.00
H1270  H     0.58732   1.13900   0.99756   0.00000  Uiso   1.00
H1271  H     0.66782   0.95213   1.16889   0.00000  Uiso   1.00
C1272  C     0.72991   0.97657   0.87883   0.00000  Uiso   1.00
C1273  C     0.69915   1.00273   0.87365   0.00000  Uiso   1.00
C1274  C     0.60888   0.90039   1.23530   0.00000  Uiso   1.00
C1275  C     0.88256   1.01308   0.87825   0.00000  Uiso   1.00
C1276  C     0.89579   1.04959   0.86675   0.00000  Uiso   1.00
H1277  H     0.92655   1.05534   0.86877   0.00000  Uiso   1.00
H1278  H     0.89981   0.99123   0.89234   0.00000  Uiso   1.00
H1279  H     0.64482   0.87911   1.28389   0.00000  Uiso   1.00
C1280  C     0.62757   1.30832   1.14158   0.00000  Uiso   1.00
C1281  C     0.64079   1.32500   1.10737   0.00000  Uiso   1.00
C1282  C     0.63878   1.30401   1.07259   0.00000  Uiso   1.00
C1283  C     0.61751   1.26894   1.07201   0.00000  Uiso   1.00
C1284  C     0.62843   1.26405   1.00302   0.00000  Uiso   1.00
C1285  C     0.61262   1.24910   1.03637   0.00000  Uiso   1.00
C1286  C     0.60687   1.24996   1.10766   0.00000  Uiso   1.00
C1287  C     0.60917   1.27095   1.14273   0.00000  Uiso   1.00
H1288  H     0.59681   1.22035   1.10737   0.00000  Uiso   1.00
C1289  C     0.69254   1.41900   1.06454   0.00000  Uiso   1.00
C1290  C     0.73509   1.42619   1.05821   0.00000  Uiso   1.00
C1291  C     0.74716   1.46874   1.05706   0.00000  Uiso   1.00
H1292  H     0.73422   1.48484   1.08121   0.00000  Uiso   1.00
H1293  H     0.77763   1.47449   1.06368   0.00000  Uiso   1.00
H1294  H     0.73767   1.48426   1.03119   0.00000  Uiso   1.00
H1295  H     0.74975   1.41527   1.08380   0.00000  Uiso   1.00
H1296  H     0.68162   1.43970   1.08581   0.00000  Uiso   1.00
H1297  H     0.67242   0.82162   0.69599   0.00000  Uiso   1.00
H1298  H     0.88314   1.10967   0.86014   0.00000  Uiso   1.00
H1299  H     0.82507   1.07288   1.16832   0.00000  Uiso   1.00
O1300  O     0.78367   1.12060   0.97628   0.00000  Uiso   1.00
C1301  C     0.79373   1.09846   0.94121   0.00000  Uiso   1.00
C1302  C     0.79718   1.12750   0.90758   0.00000  Uiso   1.00
C1303  C     0.80006   1.10795   0.86819   0.00000  Uiso   1.00
H1304  H     0.81012   1.13296   0.85180   0.00000  Uiso   1.00
H1305  H     0.82191   1.14733   0.90758   0.00000  Uiso   1.00
H1306  H     0.77073   1.14475   0.91045   0.00000  Uiso   1.00
H1307  H     0.82191   1.08409   0.94236   0.00000  Uiso   1.00
H1308  H     0.77217   1.07546   0.93690   0.00000  Uiso   1.00
H1309  H     0.68248   0.82478   0.74774   0.00000  Uiso   1.00
H1310  H     0.66178   0.75751   0.72100   0.00000  Uiso   1.00
C1311  C     0.74659   0.87193   1.05160   0.00000  Uiso   1.00
H1312  H     0.77447   0.86589   1.06483   0.00000  Uiso   1.00
H1313  H     0.71410   0.90384   1.20598   0.00000  Uiso   1.00
H1314  H     0.65488   0.89061   0.64942   0.00000  Uiso   1.00
H1315  H     0.56547   1.17551   0.96507   0.00000  Uiso   1.00
H1316  H     0.78971   1.37128   1.13555   0.00000  Uiso   1.00
H1317  H     0.74055   1.32155   1.14590   0.00000  Uiso   1.00
H1318  H     0.69685   1.20972   1.01969   0.00000  Uiso   1.00
H1319  H     0.45451   1.10852   1.38939   0.00000  Uiso   1.00
H1320  H     0.74400   1.40808   1.03378   0.00000  Uiso   1.00
H1321  H     0.67903   1.43194   1.03895   0.00000  Uiso   1.00
C1322  C     0.72474   0.93259   0.87998   0.00000  Uiso   1.00
C1323  C     0.68909   0.92367   0.85497   0.00000  Uiso   1.00
C1324  C     0.65344   0.94294   0.87135   0.00000  Uiso   1.00
C1325  C     0.65718   0.98721   0.86503   0.00000  Uiso   1.00
H1326  H     0.74802   0.91591   0.86647   0.00000  Uiso   1.00
H1327  H     0.71870   0.92626   0.91045   0.00000  Uiso   1.00
H1328  H     0.69628   0.93316   0.82564   0.00000  Uiso   1.00
H1329  H     0.65086   0.93690   0.90211   0.00000  Uiso   1.00
H1330  H     0.64942   0.99353   0.83484   0.00000  Uiso   1.00
H1331  H     0.63562   1.00244   0.88228   0.00000  Uiso   1.00
C1332  C     0.67960   1.10996   0.92224   0.00000  Uiso   1.00
C1333  C     0.59652   1.11456   0.91764   0.00000  Uiso   1.00
C1334  C     0.65747   1.12549   0.95472   0.00000  Uiso   1.00
H1335  H     0.62412   1.16947   0.92166   0.00000  Uiso   1.00
H1336  H     0.69196   1.13555   0.90844   0.00000  Uiso   1.00
H1337  H     0.70548   1.09587   0.93402   0.00000  Uiso   1.00
H1338  H     0.56950   1.12664   0.90671   0.00000  Uiso   1.00
H1339  H     0.58905   1.08754   0.93201   0.00000  Uiso   1.00
H1340  H     0.67702   1.14475   0.97025   0.00000  Uiso   1.00
H1341  H     0.65172   1.10105   0.97398   0.00000  Uiso   1.00
H1342  H     0.64798   1.05678   0.90987   0.00000  Uiso   1.00
C1343  C     0.67874   0.88055   0.85152   0.00000  Uiso   1.00
C1344  C     0.61780   0.92224   0.85008   0.00000  Uiso   1.00
C1345  C     0.63447   0.88199   0.83887   0.00000  Uiso   1.00
H1346  H     0.69915   0.86474   0.83312   0.00000  Uiso   1.00
H1347  H     0.68104   0.86934   0.88084   0.00000  Uiso   1.00
H1348  H     0.60917   0.94121   0.82622   0.00000  Uiso   1.00
H1349  H     0.59767   0.91821   0.87423   0.00000  Uiso   1.00
H1350  H     0.61808   0.86100   0.85583   0.00000  Uiso   1.00
O1351  O     0.64396   0.92799   0.76815   0.00000  Uiso   1.00
H1352  H     0.69829   0.92310   0.71525   0.00000  Uiso   1.00
H1353  H     0.71468   0.87883   0.70749   0.00000  Uiso   1.00
C1354  C     0.59911   1.28130   1.21230   0.00000  Uiso   1.00
H1355  H     0.59106   1.27009   1.24048   0.00000  Uiso   1.00
O1356  O     0.59825   1.21173   1.03205   0.00000  Uiso   1.00
C1357  C     0.65632   0.94983   1.29280   0.00000  Uiso   1.00
H1358  H     0.67155   0.92971   1.27354   0.00000  Uiso   1.00
H1359  H     0.66465   0.94092   1.32212   0.00000  Uiso   1.00
C1360  C     0.44531   0.99037   1.20569   0.00000  Uiso   1.00
H1361  H     0.42231   0.97197   1.21690   0.00000  Uiso   1.00
H1362  H     0.44272   0.99209   1.17436   0.00000  Uiso   1.00
H1363  H     0.43754   1.01912   1.21690   0.00000  Uiso   1.00
C1364  C     0.61262   1.19764   0.99784   0.00000  Uiso   1.00
H1365  H     0.63936   1.18499   1.00906   0.00000  Uiso   1.00
O1366  O     0.62096   1.10594   0.88486   0.00000  Uiso   1.00
H1367  H     0.78281   1.43453   1.17436   0.00000  Uiso   1.00
C1368  C     0.77706   1.07748   1.20339   0.00000  Uiso   1.00
C1369  C     0.77188   1.03694   1.22093   0.00000  Uiso   1.00
C1370  C     0.79920   1.09702   1.23703   0.00000  Uiso   1.00
C1371  C     0.77878   1.08466   1.27497   0.00000  Uiso   1.00
C1372  C     0.76326   1.04413   1.26664   0.00000  Uiso   1.00
H1373  H     0.74889   1.09185   1.20310   0.00000  Uiso   1.00
H1374  H     0.74975   1.02113   1.20512   0.00000  Uiso   1.00
H1375  H     0.79977   1.02199   1.21920   0.00000  Uiso   1.00
H1376  H     0.82823   1.08438   1.23731   0.00000  Uiso   1.00
H1377  H     0.75607   1.10220   1.28849   0.00000  Uiso   1.00
H1378  H     0.80264   1.08351   1.29539   0.00000  Uiso   1.00
H1379  H     0.78137   1.02688   1.28590   0.00000  Uiso   1.00
C1380  C     0.80926   0.82679   1.00618   0.00000  Uiso   1.00
H1381  H     0.81012   0.79776   1.01883   0.00000  Uiso   1.00
H1382  H     0.81989   0.84893   1.02602   0.00000  Uiso   1.00
H1383  H     0.82708   0.82737   0.98002   0.00000  Uiso   1.00
O1384  O     0.67127   0.98836   1.28791   0.00000  Uiso   1.00
C1385  C     0.71008   0.99324   1.27382   0.00000  Uiso   1.00
C1386  C     0.72014   1.03694   1.27469   0.00000  Uiso   1.00
H1387  H     0.73106   0.97341   1.28647   0.00000  Uiso   1.00
H1388  H     0.70605   0.98721   1.24306   0.00000  Uiso   1.00
H1389  H     0.70375   1.04959   1.25083   0.00000  Uiso   1.00
H1390  H     0.71238   1.04873   1.30315   0.00000  Uiso   1.00
H1391  H     0.82449   1.34052   1.16228   0.00000  Uiso   1.00
C1392  C     0.75262   1.18528   1.00388   0.00000  Uiso   1.00
H1393  H     0.73250   1.16315   0.99382   0.00000  Uiso   1.00
H1394  H     0.77533   1.18586   0.98203   0.00000  Uiso   1.00
C1395  C     0.61665   1.09127   1.24651   0.00000  Uiso   1.00
H1396  H     0.58732   1.10306   1.24393   0.00000  Uiso   1.00
H1397  H     0.61665   1.05994   1.24163   0.00000  Uiso   1.00
C1398  C     0.59020   1.15423   1.34541   0.00000  Uiso   1.00
H1399  H     0.60543   1.15021   1.37272   0.00000  Uiso   1.00
C1400  C     0.53989   0.88946   1.14877   0.00000  Uiso   1.00
H1401  H     0.51746   0.86934   1.15797   0.00000  Uiso   1.00
H1402  H     0.52523   0.91045   1.13037   0.00000  Uiso   1.00
H1403  H     0.58818   1.21317   1.24709   0.00000  Uiso   1.00
C1404  C     0.66609   0.73135   0.81501   0.00000  Uiso   1.00
H1405  H     0.68938   0.73365   0.79373   0.00000  Uiso   1.00
H1406  H     0.66235   0.70030   0.81932   0.00000  Uiso   1.00
C1407  C     0.81041   1.22840   1.32672   0.00000  Uiso   1.00
H1408  H     0.79460   1.20195   1.33420   0.00000  Uiso   1.00
H1409  H     0.84117   1.22840   1.33477   0.00000  Uiso   1.00
O1410  O     0.63907   0.88975   1.00388   0.00000  Uiso   1.00
C1411  C     0.54219   0.77850   0.88831   0.00000  Uiso   1.00
H1412  H     0.53443   0.75291   0.87135   0.00000  Uiso   1.00
H1413  H     0.53385   0.80408   0.87193   0.00000  Uiso   1.00
H1414  H     0.52408   0.77993   0.91419   0.00000  Uiso   1.00
C1415  C     0.64396   1.29337   1.39370   0.00000  Uiso   1.00
H1416  H     0.65172   1.27584   1.41900   0.00000  Uiso   1.00
H1417  H     0.61607   1.30746   1.39773   0.00000  Uiso   1.00
C1418  C     0.76125   1.09501   0.85037   0.00000  Uiso   1.00
H1419  H     0.76039   1.09559   0.81874   0.00000  Uiso   1.00
H1420  H     0.73854   1.11629   0.85640   0.00000  Uiso   1.00
C1421  C     0.55282   1.17896   1.34886   0.00000  Uiso   1.00
C1422  C     0.51919   1.16113   1.37272   0.00000  Uiso   1.00
H1423  H     0.54075   1.18126   1.31953   0.00000  Uiso   1.00
H1424  H     0.55944   1.20828   1.35863   0.00000  Uiso   1.00
H1425  H     0.49303   1.17867   1.37186   0.00000  Uiso   1.00
H1426  H     0.52868   1.16113   1.40290   0.00000  Uiso   1.00
C1427  C     0.68938   1.41699   1.15768   0.00000  Uiso   1.00
H1428  H     0.71525   1.41613   1.13928   0.00000  Uiso   1.00
H1429  H     0.67213   1.44258   1.15222   0.00000  Uiso   1.00
C1430  C     0.62326   1.23415   0.97197   0.00000  Uiso   1.00
H1431  H     0.59767   1.24335   0.95530   0.00000  Uiso   1.00
H1432  H     0.65028   1.23157   0.95587   0.00000  Uiso   1.00
H1433  H     0.61952   1.05390   1.13957   0.00000  Uiso   1.00
O1434  O     0.77821   0.88026   1.22438   0.00000  Uiso   1.00
O1435  O     0.80264   0.90873   1.17349   0.00000  Uiso   1.00
H1436  H     0.80207   0.86675   1.21920   0.00000  Uiso   1.00
C1437  C     0.60831   0.85612   1.17953   0.00000  Uiso   1.00
H1438  H     0.66925   0.82133   1.24939   0.00000  Uiso   1.00
C1439  C     0.79575   1.08409   1.16602   0.00000  Uiso   1.00
C1440  C     0.79345   1.10824   1.01279   0.00000  Uiso   1.00
H1441  H     0.82076   1.05247   0.99152   0.00000  Uiso   1.00
H1442  H     0.84634   1.03435   1.05333   0.00000  Uiso   1.00
H1443  H     0.83973   1.07834   1.10881   0.00000  Uiso   1.00
C1444  C     0.34210   0.00805   0.06727   0.00000  Uiso   1.00
C1445  C     0.30157   0.01409   0.06267   0.00000  Uiso   1.00
C1446  C     0.30070   0.02731   0.13310   0.00000  Uiso   1.00
C1447  C     0.28029   0.02386   0.09573   0.00000  Uiso   1.00
C1448  C     0.24005   0.03392   0.09257   0.00000  Uiso   1.00
C1449  C     0.27771   0.04025   0.16616   0.00000  Uiso   1.00
C1450  C     0.28144   0.01207   0.02645   0.00000  Uiso   1.00
C1451  C     0.24350   0.01955   0.02415   0.00000  Uiso   1.00
C1452  C     0.23775   0.04743   0.16156   0.00000  Uiso   1.00
C1453  C     0.22107   0.04686   0.12505   0.00000  Uiso   1.00
C1454  C     0.22136   0.03105   0.05663   0.00000  Uiso   1.00
C1455  C     0.18169   0.04025   0.05520   0.00000  Uiso   1.00
C1456  C     0.18169   0.05721   0.12218   0.00000  Uiso   1.00
C1457  C     0.16099   0.05203   0.08624   0.00000  Uiso   1.00
C1458  C     0.35993   0.00690   0.10349   0.00000  Uiso   1.00
C1459  C     0.23343   0.02041  -0.01552   0.00000  Uiso   1.00
C1460  C     0.29639   0.00805  -0.00977   0.00000  Uiso   1.00
N1461  N     0.26678   0.01552  -0.03737   0.00000  Uiso   1.00
H1462  H     0.26994   0.03450  -0.05922   0.00000  Uiso   1.00
C1463  C     0.33894   0.01610   0.13627   0.00000  Uiso   1.00
H1464  H     0.16559   0.06756   0.14719   0.00000  Uiso   1.00
H1465  H     0.21935   0.06095   0.18284   0.00000  Uiso   1.00
H1466  H     0.16760   0.03536   0.02760   0.00000  Uiso   1.00
H1467  H     0.36050   0.00057   0.04283   0.00000  Uiso   1.00
H1468  H     0.21015   0.03536  -0.03019   0.00000  Uiso   1.00
H1469  H     0.32658   0.00891  -0.01811   0.00000  Uiso   1.00
H1470  H     0.39040   0.00057   0.10723   0.00000  Uiso   1.00
C1471  C     0.35389   0.01121   0.17738   0.00000  Uiso   1.00
C1472  C     0.32773   0.00776   0.21417   0.00000  Uiso   1.00
C1473  C     0.29668   0.03938   0.20670   0.00000  Uiso   1.00
C1474  C     0.11902   0.05577   0.08481   0.00000  Uiso   1.00
C1475  C     0.09717   0.02501   0.10809   0.00000  Uiso   1.00
C1476  C     0.05980   0.04226   0.12362   0.00000  Uiso   1.00
H1477  H     0.09084   0.00115   0.08854   0.00000  Uiso   1.00
H1478  H     0.10781   0.05836   0.05548   0.00000  Uiso   1.00
H1479  H     0.10896   0.08279   0.09803   0.00000  Uiso   1.00
H1480  H     0.31134   0.06727   0.21072   0.00000  Uiso   1.00
H1481  H     0.31853  -0.02242   0.21504   0.00000  Uiso   1.00
H1482  H     0.34756   0.01064   0.23832   0.00000  Uiso   1.00
H1483  H     0.37775   0.03134   0.18284   0.00000  Uiso   1.00
H1484  H     0.36654  -0.01754   0.17249   0.00000  Uiso   1.00
C1485  C     0.25155   0.24235   0.20095   0.00000  Uiso   1.00
C1486  C     0.28173   0.22136   0.21848   0.00000  Uiso   1.00
C1487  C     0.31939   0.23746   0.21963   0.00000  Uiso   1.00
C1488  C     0.27426   0.18657   0.23832   0.00000  Uiso   1.00
C1489  C     0.23832   0.16846   0.23803   0.00000  Uiso   1.00
C1490  C     0.20756   0.19031   0.22050   0.00000  Uiso   1.00
C1491  C     0.21274   0.22740   0.20411   0.00000  Uiso   1.00
C1492  C     0.35044   0.21992   0.23688   0.00000  Uiso   1.00
C1493  C     0.30473   0.16760   0.25528   0.00000  Uiso   1.00
C1494  C     0.34325   0.18456   0.25643   0.00000  Uiso   1.00
C1495  C     0.36510   0.12965   0.29438   0.00000  Uiso   1.00
C1496  C     0.29984   0.12994   0.27512   0.00000  Uiso   1.00
C1497  C     0.32457   0.27368   0.20210   0.00000  Uiso   1.00
C1498  C     0.38810   0.23746   0.23602   0.00000  Uiso   1.00
C1499  C     0.41771   0.21762   0.25442   0.00000  Uiso   1.00
C1500  C     0.41138   0.18169   0.27311   0.00000  Uiso   1.00
C1501  C     0.37430   0.16473   0.27397   0.00000  Uiso   1.00
H1502  H     0.38666   0.11298   0.30962   0.00000  Uiso   1.00
C1503  C     0.23027   0.13224   0.25471   0.00000  Uiso   1.00
C1504  C     0.26046   0.11212   0.27282   0.00000  Uiso   1.00
C1505  C     0.29553   0.29150   0.18111   0.00000  Uiso   1.00
N1506  N     0.33031   0.11212   0.29553   0.00000  Uiso   1.00
C1507  C     0.25873   0.27857   0.18312   0.00000  Uiso   1.00
H1508  H     0.23861   0.29812   0.16961   0.00000  Uiso   1.00
C1509  C     0.25557   0.07331   0.29610   0.00000  Uiso   1.00
C1510  C     0.27771   0.03910   0.27771   0.00000  Uiso   1.00
H1511  H     0.26822   0.01236   0.29150   0.00000  Uiso   1.00
H1512  H     0.30847   0.04657   0.27914   0.00000  Uiso   1.00
H1513  H     0.26649   0.07532   0.32543   0.00000  Uiso   1.00
H1514  H     0.22481   0.06583   0.29467   0.00000  Uiso   1.00
O1515  O     0.26793   0.03479   0.23717   0.00000  Uiso   1.00
C1516  C     0.39155   0.27454   0.21963   0.00000  Uiso   1.00
C1517  C     0.42691   0.29438   0.22021   0.00000  Uiso   1.00
C1518  C     0.45911   0.27339   0.23487   0.00000  Uiso   1.00
C1519  C     0.49907   0.29294   0.23458   0.00000  Uiso   1.00
C1520  C     0.50079   0.32543   0.26333   0.00000  Uiso   1.00
C1521  C     0.51200   0.31134   0.30329   0.00000  Uiso   1.00
C1522  C     0.55340   0.30732   0.31450   0.00000  Uiso   1.00
H1523  H     0.49763   0.32945   0.32485   0.00000  Uiso   1.00
H1524  H     0.52120   0.34785   0.25442   0.00000  Uiso   1.00
H1525  H     0.47319   0.34038   0.26649   0.00000  Uiso   1.00
H1526  H     0.50970   0.30358   0.20699   0.00000  Uiso   1.00
H1527  H     0.52063   0.27023   0.24005   0.00000  Uiso   1.00
H1528  H     0.42691   0.32399   0.20986   0.00000  Uiso   1.00
C1529  C     0.30214   0.33060   0.16099   0.00000  Uiso   1.00
C1530  C     0.31307   0.32543   0.11873   0.00000  Uiso   1.00
C1531  C     0.31450   0.36539   0.09602   0.00000  Uiso   1.00
O1532  O     0.34986   0.38580   0.10579   0.00000  Uiso   1.00
C1533  C     0.38580   0.37257   0.08826   0.00000  Uiso   1.00
C1534  C     0.41483   0.35418   0.11700   0.00000  Uiso   1.00
C1535  C     0.46917   0.37832   0.07245   0.00000  Uiso   1.00
H1536  H     0.40506   0.32572   0.12620   0.00000  Uiso   1.00
H1537  H     0.41253   0.37142   0.14345   0.00000  Uiso   1.00
H1538  H     0.37804   0.35130   0.06612   0.00000  Uiso   1.00
H1539  H     0.29007   0.38292   0.10551   0.00000  Uiso   1.00
H1540  H     0.31220   0.36223   0.06468   0.00000  Uiso   1.00
H1541  H     0.33836   0.30732   0.11269   0.00000  Uiso   1.00
H1542  H     0.28949   0.30818   0.10666   0.00000  Uiso   1.00
H1543  H     0.32169   0.35303   0.17249   0.00000  Uiso   1.00
H1544  H     0.27512   0.34699   0.16185   0.00000  Uiso   1.00
C1545  C     0.16731   0.17048   0.21820   0.00000  Uiso   1.00
C1546  C     0.16616   0.12592   0.21676   0.00000  Uiso   1.00
C1547  C     0.12275   0.11269   0.21992   0.00000  Uiso   1.00
H1548  H     0.11125   0.12304   0.19232   0.00000  Uiso   1.00
H1549  H     0.11010   0.12419   0.24666   0.00000  Uiso   1.00
H1550  H     0.17881   0.11355   0.19060   0.00000  Uiso   1.00
H1551  H     0.15064   0.17853   0.19261   0.00000  Uiso   1.00
H1552  H     0.15265   0.18197   0.24378   0.00000  Uiso   1.00
C1553  C     0.06382   0.01322   0.19060   0.00000  Uiso   1.00
C1554  C     0.11557   0.06871   0.21877   0.00000  Uiso   1.00
S1555  S     0.06353   0.05750   0.22050   0.00000  Uiso   1.00
H1556  H     0.12764   0.05893   0.24637   0.00000  Uiso   1.00
C1557  C     0.03996   0.01495   0.15351   0.00000  Uiso   1.00
C1558  C    -0.00431   0.01782   0.16041   0.00000  Uiso   1.00
C1559  C    -0.02990   0.02846   0.12707   0.00000  Uiso   1.00
H1560  H    -0.05548   0.01006   0.12735   0.00000  Uiso   1.00
H1561  H    -0.01581   0.02156   0.09947   0.00000  Uiso   1.00
H1562  H     0.04226  -0.01437   0.14144   0.00000  Uiso   1.00
C1563  C     0.48728   0.49245  -0.02242   0.00000  Uiso   1.00
C1564  C     0.49590   0.43151   0.01811   0.00000  Uiso   1.00
C1565  C     0.51028   0.45968  -0.00977   0.00000  Uiso   1.00
C1566  C     0.54679   0.45364  -0.02444   0.00000  Uiso   1.00
C1567  C     0.52034   0.40017   0.02990   0.00000  Uiso   1.00
C1568  C     0.50194   0.51430  -0.05462   0.00000  Uiso   1.00
C1569  C     0.53845   0.50654  -0.06900   0.00000  Uiso   1.00
C1570  C     0.55397   0.39212   0.00834   0.00000  Uiso   1.00
C1571  C     0.56979   0.42202  -0.01351   0.00000  Uiso   1.00
C1572  C     0.55915   0.47549  -0.05606   0.00000  Uiso   1.00
C1573  C     0.43496   0.46802   0.02185   0.00000  Uiso   1.00
C1574  C     0.54449   0.53414  -0.09746   0.00000  Uiso   1.00
C1575  C     0.48814   0.54650  -0.07273   0.00000  Uiso   1.00
N1576  N     0.51344   0.55972  -0.10148   0.00000  Uiso   1.00
H1577  H     0.52034   0.58790  -0.10263   0.00000  Uiso   1.00
C1578  C     0.45882   0.43611   0.03306   0.00000  Uiso   1.00
C1579  C     0.44416   0.40736   0.05721   0.00000  Uiso   1.00
C1580  C     0.48009   0.32457   0.11844   0.00000  Uiso   1.00
C1581  C     0.51718   0.32658   0.10867   0.00000  Uiso   1.00
C1582  C     0.53270   0.35360   0.08337   0.00000  Uiso   1.00
C1583  C     0.45019   0.49504  -0.00460   0.00000  Uiso   1.00
H1584  H     0.59652   0.41627  -0.02904   0.00000  Uiso   1.00
H1585  H     0.58732   0.47032  -0.06928   0.00000  Uiso   1.00
H1586  H     0.45882   0.55771  -0.07359   0.00000  Uiso   1.00
H1587  H     0.46917   0.30387   0.13943   0.00000  Uiso   1.00
H1588  H     0.40851   0.47405   0.03737   0.00000  Uiso   1.00
C1589  C     0.58157   0.53874  -0.12247   0.00000  Uiso   1.00
C1590  C     0.57784   0.53011  -0.16674   0.00000  Uiso   1.00
C1591  C     0.53903   0.51229  -0.17738   0.00000  Uiso   1.00
C1592  C     0.53011   0.47405  -0.15524   0.00000  Uiso   1.00
O1593  O     0.55541   0.45307  -0.14144   0.00000  Uiso   1.00
C1594  C     0.48642   0.46112  -0.16156   0.00000  Uiso   1.00
C1595  C     0.47032   0.43007  -0.13397   0.00000  Uiso   1.00
C1596  C     0.42605   0.42461  -0.13713   0.00000  Uiso   1.00
H1597  H     0.42030   0.39385  -0.13368   0.00000  Uiso   1.00
H1598  H     0.47865   0.43410  -0.10378   0.00000  Uiso   1.00
H1599  H     0.48383   0.40247  -0.14202   0.00000  Uiso   1.00
H1600  H     0.46888   0.48642  -0.15380   0.00000  Uiso   1.00
H1601  H     0.51660   0.53098  -0.16473   0.00000  Uiso   1.00
H1602  H     0.60141   0.51171  -0.17709   0.00000  Uiso   1.00
H1603  H     0.60256   0.51833  -0.11039   0.00000  Uiso   1.00
H1604  H     0.58876   0.56892  -0.11585   0.00000  Uiso   1.00
C1605  C     0.37171   0.43266  -0.18686   0.00000  Uiso   1.00
C1606  C     0.35935   0.42921  -0.22510   0.00000  Uiso   1.00
C1607  C     0.38637   0.42633  -0.25701   0.00000  Uiso   1.00
C1608  C     0.41196   0.43438  -0.17939   0.00000  Uiso   1.00
C1609  C     0.33031   0.41742  -0.29984   0.00000  Uiso   1.00
C1610  C     0.43956   0.43553  -0.21072   0.00000  Uiso   1.00
C1611  C     0.37114   0.41886  -0.29380   0.00000  Uiso   1.00
C1612  C     0.30444   0.43065  -0.16616   0.00000  Uiso   1.00
C1613  C     0.34383   0.43323  -0.15581   0.00000  Uiso   1.00
C1614  C     0.35590   0.43668  -0.11614   0.00000  Uiso   1.00
C1615  C     0.27771   0.43122  -0.13684   0.00000  Uiso   1.00
C1616  C     0.28576   0.43122  -0.09832   0.00000  Uiso   1.00
C1617  C     0.32600   0.43754  -0.08826   0.00000  Uiso   1.00
C1618  C     0.29237   0.42748  -0.20526   0.00000  Uiso   1.00
H1619  H     0.26304   0.42863  -0.07676   0.00000  Uiso   1.00
C1620  C     0.39787   0.41311  -0.32255   0.00000  Uiso   1.00
C1621  C     0.43869   0.41397  -0.31652   0.00000  Uiso   1.00
N1622  N     0.30674   0.42288  -0.27109   0.00000  Uiso   1.00
C1623  C     0.42720   0.42777  -0.24925   0.00000  Uiso   1.00
C1624  C     0.45364   0.42173  -0.27943   0.00000  Uiso   1.00
C1625  C     0.31910   0.42576  -0.23315   0.00000  Uiso   1.00
C1626  C     0.39270   0.40880  -0.36539   0.00000  Uiso   1.00
C1627  C     0.43295   0.40190  -0.38436   0.00000  Uiso   1.00
C1628  C     0.43726   0.36165  -0.40247   0.00000  Uiso   1.00
H1629  H     0.42030   0.35993  -0.42892   0.00000  Uiso   1.00
H1630  H     0.46744   0.35590  -0.41052   0.00000  Uiso   1.00
H1631  H     0.43783   0.42116  -0.40908   0.00000  Uiso   1.00
H1632  H     0.37114   0.38752  -0.37401   0.00000  Uiso   1.00
H1633  H     0.38292   0.43783  -0.37315   0.00000  Uiso   1.00
H1634  H     0.31680   0.41167  -0.32744   0.00000  Uiso   1.00
H1635  H     0.26189   0.42116  -0.20929   0.00000  Uiso   1.00
H1636  H     0.24781   0.43065  -0.14633   0.00000  Uiso   1.00
H1637  H     0.48412   0.41742  -0.27397   0.00000  Uiso   1.00
C1638  C     0.33491   0.44818  -0.04427   0.00000  Uiso   1.00
C1639  C     0.29955   0.44588  -0.01725   0.00000  Uiso   1.00
C1640  C     0.30617   0.45882   0.02329   0.00000  Uiso   1.00
H1641  H     0.32687   0.48268   0.02472   0.00000  Uiso   1.00
H1642  H     0.27943   0.47003   0.03651   0.00000  Uiso   1.00
H1643  H     0.27943   0.46687  -0.02961   0.00000  Uiso   1.00
H1644  H     0.28662   0.41713  -0.01754   0.00000  Uiso   1.00
H1645  H     0.35705   0.42806  -0.03421   0.00000  Uiso   1.00
O1646  O     0.42260   0.33233  -0.37660   0.00000  Uiso   1.00
C1647  C     0.45422   0.31192  -0.35791   0.00000  Uiso   1.00
C1648  C     0.43467   0.29265  -0.32313   0.00000  Uiso   1.00
C1649  C     0.40908   0.31968  -0.29495   0.00000  Uiso   1.00
C1650  C     0.36539   0.31450  -0.30444   0.00000  Uiso   1.00
H1651  H     0.35906   0.28892  -0.32169   0.00000  Uiso   1.00
H1652  H     0.35734   0.33894  -0.32313   0.00000  Uiso   1.00
H1653  H     0.41828   0.34929  -0.30070   0.00000  Uiso   1.00
H1654  H     0.41598   0.26966  -0.33376   0.00000  Uiso   1.00
H1655  H     0.45364   0.27512  -0.30473   0.00000  Uiso   1.00
H1656  H     0.46687   0.28863  -0.37516   0.00000  Uiso   1.00
H1657  H     0.47722   0.33146  -0.34929   0.00000  Uiso   1.00
C1658  C     0.33405   0.32687  -0.12247   0.00000  Uiso   1.00
C1659  C     0.30732   0.32974  -0.15323   0.00000  Uiso   1.00
C1660  C     0.37315   0.32227  -0.13080   0.00000  Uiso   1.00
C1661  C     0.27886   0.30904  -0.00805   0.00000  Uiso   1.00
C1662  C     0.26534   0.30588   0.02961   0.00000  Uiso   1.00
C1663  C     0.23113   0.32715   0.03910   0.00000  Uiso   1.00
C1664  C     0.31910   0.32514  -0.19261   0.00000  Uiso   1.00
C1665  C     0.38522   0.31997  -0.17019   0.00000  Uiso   1.00
C1666  C     0.35964   0.32054  -0.19980   0.00000  Uiso   1.00
C1667  C     0.26822   0.34210  -0.14575   0.00000  Uiso   1.00
C1668  C     0.29179   0.32687  -0.22337   0.00000  Uiso   1.00
C1669  C     0.30617   0.32169  -0.26046   0.00000  Uiso   1.00
C1670  C     0.34728   0.32083  -0.26592   0.00000  Uiso   1.00
C1671  C     0.37401   0.31910  -0.23688   0.00000  Uiso   1.00
H1672  H     0.34613   0.35590  -0.02990   0.00000  Uiso   1.00
C1673  C     0.25643   0.34325  -0.10666   0.00000  Uiso   1.00
C1674  C     0.28029   0.33290  -0.07474   0.00000  Uiso   1.00
C1675  C     0.25356   0.34239  -0.21561   0.00000  Uiso   1.00
C1676  C     0.24148   0.34498  -0.17709   0.00000  Uiso   1.00
C1677  C     0.21791   0.35763  -0.09918   0.00000  Uiso   1.00
C1678  C     0.19261   0.36338  -0.13080   0.00000  Uiso   1.00
C1679  C     0.20382   0.35360  -0.16731   0.00000  Uiso   1.00
C1680  C     0.26333   0.33233  -0.03708   0.00000  Uiso   1.00
C1681  C     0.22625   0.34986  -0.02760   0.00000  Uiso   1.00
C1682  C     0.20469   0.36136  -0.06066   0.00000  Uiso   1.00
C1683  C     0.15121   0.37660  -0.12419   0.00000  Uiso   1.00
H1684  H     0.13195   0.35188  -0.11902   0.00000  Uiso   1.00
H1685  H     0.14058   0.39270  -0.14920   0.00000  Uiso   1.00
C1686  C     0.32083   0.32859  -0.08308   0.00000  Uiso   1.00
H1687  H     0.18197   0.35475  -0.18945   0.00000  Uiso   1.00
H1688  H     0.41512   0.31479  -0.17824   0.00000  Uiso   1.00
H1689  H     0.28748   0.31997  -0.28547   0.00000  Uiso   1.00
C1690  C     0.22682   0.35676  -0.24781   0.00000  Uiso   1.00
C1691  C     0.19779   0.32801  -0.26649   0.00000  Uiso   1.00
H1692  H     0.21187   0.29984  -0.26994   0.00000  Uiso   1.00
H1693  H     0.24235   0.37056  -0.27167   0.00000  Uiso   1.00
C1694  C     0.14748   0.40448  -0.09113   0.00000  Uiso   1.00
O1695  O     0.10838   0.41368  -0.08998   0.00000  Uiso   1.00
C1696  C     0.09314   0.44473  -0.07015   0.00000  Uiso   1.00
C1697  C     0.05060   0.44818  -0.08596   0.00000  Uiso   1.00
C1698  C     0.02329   0.47291  -0.06037   0.00000  Uiso   1.00
H1699  H     0.03105   0.50367  -0.06181   0.00000  Uiso   1.00
H1700  H     0.02329   0.46687  -0.02932   0.00000  Uiso   1.00
H1701  H     0.05146   0.45882  -0.11557   0.00000  Uiso   1.00
H1702  H     0.03708   0.41943  -0.08653   0.00000  Uiso   1.00
H1703  H     0.10809   0.47204  -0.07561   0.00000  Uiso   1.00
H1704  H     0.08826   0.43984  -0.03910   0.00000  Uiso   1.00
C1705  C     0.12275   0.34066   0.16214   0.00000  Uiso   1.00
C1706  C     0.10292   0.31450   0.13742   0.00000  Uiso   1.00
C1707  C     0.05606   0.25931   0.13052   0.00000  Uiso   1.00
C1708  C     0.03191   0.23458   0.15294   0.00000  Uiso   1.00
C1709  C     0.07302   0.28921   0.15150   0.00000  Uiso   1.00
C1710  C     0.06382   0.28777   0.18916   0.00000  Uiso   1.00
S1711  S     0.03450   0.24781   0.20181   0.00000  Uiso   1.00
C1712  C     0.06095   0.25413   0.09113   0.00000  Uiso   1.00
C1713  C     0.04398   0.22193   0.07216   0.00000  Uiso   1.00
C1714  C     0.04628   0.22050   0.02760   0.00000  Uiso   1.00
H1715  H     0.04456   0.19089   0.01667   0.00000  Uiso   1.00
H1716  H     0.07503   0.22883   0.01754   0.00000  Uiso   1.00
C1717  C     0.01840   0.24551   0.00489   0.00000  Uiso   1.00
C1718  C    -0.02789   0.31767  -0.00977   0.00000  Uiso   1.00
C1719  C    -0.05117   0.34066  -0.04197   0.00000  Uiso   1.00
C1720  C    -0.24263   0.41023  -0.13282   0.00000  Uiso   1.00
C1721  C    -0.20382   0.40103  -0.15236   0.00000  Uiso   1.00
C1722  C    -0.06785   0.52494  -0.17278   0.00000  Uiso   1.00
C1723  C    -0.02961   0.53241  -0.15754   0.00000  Uiso   1.00
C1724  C    -0.03536   0.48670  -0.10407   0.00000  Uiso   1.00
C1725  C    -0.01581   0.51401  -0.12304   0.00000  Uiso   1.00
C1726  C    -0.01782   0.46486  -0.07388   0.00000  Uiso   1.00
C1727  C    -0.08739   0.54449  -0.20497   0.00000  Uiso   1.00
C1728  C    -0.12505   0.52983  -0.21159   0.00000  Uiso   1.00
C1729  C    -0.14403   0.50395  -0.19117   0.00000  Uiso   1.00
C1730  C    -0.17939   0.49475  -0.20670   0.00000  Uiso   1.00
C1731  C    -0.14834   0.53845  -0.24235   0.00000  Uiso   1.00
N1732  N    -0.18169   0.51258  -0.24177   0.00000  Uiso   1.00
C1733  C    -0.13684   0.56404  -0.27771   0.00000  Uiso   1.00
C1734  C    -0.10809   0.59508  -0.25931   0.00000  Uiso   1.00
C1735  C    -0.09171   0.62096  -0.29036   0.00000  Uiso   1.00
C1736  C    -0.07446   0.66034  -0.27684   0.00000  Uiso   1.00
H1737  H    -0.09372   0.67587  -0.25729   0.00000  Uiso   1.00
H1738  H    -0.06583   0.67702  -0.30243   0.00000  Uiso   1.00
H1739  H    -0.11384   0.62556  -0.31249   0.00000  Uiso   1.00
H1740  H    -0.16070   0.57611  -0.29467   0.00000  Uiso   1.00
H1741  H    -0.12103   0.54736  -0.29927   0.00000  Uiso   1.00
H1742  H    -0.19232   0.50367  -0.26707   0.00000  Uiso   1.00
H1743  H     0.01236   0.52264  -0.11240   0.00000  Uiso   1.00
C1744  C    -0.18312   0.44099  -0.16214   0.00000  Uiso   1.00
H1745  H    -0.06871   0.60313  -0.30243   0.00000  Uiso   1.00
H1746  H    -0.12563   0.61118  -0.23861   0.00000  Uiso   1.00
H1747  H    -0.20900   0.38120  -0.17680   0.00000  Uiso   1.00
H1748  H    -0.18744   0.38292  -0.13224   0.00000  Uiso   1.00
H1749  H    -0.26247   0.41972  -0.15553   0.00000  Uiso   1.00
H1750  H    -0.23775   0.43122  -0.10953   0.00000  Uiso   1.00
H1751  H    -0.07733   0.32658  -0.05232   0.00000  Uiso   1.00
H1752  H     0.31422   0.43438   0.04168   0.00000  Uiso   1.00
C1753  C     0.01811   0.20037   0.13569   0.00000  Uiso   1.00
C1754  C     0.02214   0.19491   0.09458   0.00000  Uiso   1.00
C1755  C     0.50712   0.37689   0.06238   0.00000  Uiso   1.00
C1756  C     0.08452   0.31163   0.21590   0.00000  Uiso   1.00
C1757  C     0.10896   0.34124   0.20037   0.00000  Uiso   1.00
H1758  H     0.12304   0.36280   0.21820   0.00000  Uiso   1.00
H1759  H     0.08193   0.30530   0.24637   0.00000  Uiso   1.00
H1760  H     0.56375   0.35446   0.07906   0.00000  Uiso   1.00
C1761  C    -0.12879   0.48670  -0.15840   0.00000  Uiso   1.00
C1762  C    -0.09027   0.49792  -0.14891   0.00000  Uiso   1.00
C1763  C    -0.07216   0.47693  -0.11758   0.00000  Uiso   1.00
C1764  C    -0.09314   0.44761  -0.10004   0.00000  Uiso   1.00
C1765  C    -0.03852   0.43611  -0.05635   0.00000  Uiso   1.00
C1766  C    -0.07388   0.42777  -0.06871   0.00000  Uiso   1.00
C1767  C    -0.12822   0.43410  -0.11240   0.00000  Uiso   1.00
C1768  C    -0.14748   0.45393  -0.14317   0.00000  Uiso   1.00
H1769  H    -0.14000   0.40851  -0.09861   0.00000  Uiso   1.00
C1770  C     0.00230   0.56087  -0.17651   0.00000  Uiso   1.00
C1771  C    -0.00201   0.60313  -0.16616   0.00000  Uiso   1.00
C1772  C     0.02271   0.63303  -0.19002   0.00000  Uiso   1.00
H1773  H     0.05261   0.62354  -0.19290   0.00000  Uiso   1.00
H1774  H     0.00949   0.63332  -0.21877   0.00000  Uiso   1.00
H1775  H     0.02472   0.66207  -0.17709   0.00000  Uiso   1.00
H1776  H    -0.03220   0.61233  -0.16645   0.00000  Uiso   1.00
H1777  H    -0.00029   0.55541  -0.20756   0.00000  Uiso   1.00
H1778  H     0.05088  -0.00949   0.20842   0.00000  Uiso   1.00
H1779  H     0.14288   0.36165   0.15064   0.00000  Uiso   1.00
H1780  H     0.35044   0.30559  -0.03335   0.00000  Uiso   1.00
O1781  O     0.17565   0.36194   0.01897   0.00000  Uiso   1.00
C1782  C     0.14460   0.33520   0.02587   0.00000  Uiso   1.00
C1783  C     0.13627   0.33779   0.07302   0.00000  Uiso   1.00
C1784  C     0.11988   0.30300   0.09516   0.00000  Uiso   1.00
H1785  H     0.14087   0.28029   0.10177   0.00000  Uiso   1.00
H1786  H     0.11643   0.36223   0.07676   0.00000  Uiso   1.00
H1787  H     0.15811   0.35159   0.09113   0.00000  Uiso   1.00
H1788  H     0.12017   0.33750   0.00604   0.00000  Uiso   1.00
H1789  H     0.15380   0.30559   0.02070   0.00000  Uiso   1.00
H1790  H     0.09372   0.00460   0.18542   0.00000  Uiso   1.00
H1791  H     0.13023   0.05318   0.19549   0.00000  Uiso   1.00
C1792  C     0.45393   0.23717   0.25212   0.00000  Uiso   1.00
H1793  H     0.47865   0.22337   0.26506   0.00000  Uiso   1.00
H1794  H     0.49849   0.28346   0.31019   0.00000  Uiso   1.00
H1795  H     0.11355   0.01610   0.13339   0.00000  Uiso   1.00
H1796  H    -0.03249   0.34670  -0.06670   0.00000  Uiso   1.00
H1797  H     0.17163   0.32198  -0.24982   0.00000  Uiso   1.00
H1798  H     0.20756   0.37976  -0.23746   0.00000  Uiso   1.00
H1799  H     0.16645   0.42835  -0.09947   0.00000  Uiso   1.00
H1800  H     0.58445   0.55800  -0.18054   0.00000  Uiso   1.00
H1801  H     0.00345   0.60975  -0.13569   0.00000  Uiso   1.00
H1802  H     0.03191   0.55455  -0.16789   0.00000  Uiso   1.00
C1803  C    -0.00029   0.16875   0.15984   0.00000  Uiso   1.00
C1804  C    -0.00172   0.12937   0.13885   0.00000  Uiso   1.00
C1805  C    -0.02099   0.13397   0.09947   0.00000  Uiso   1.00
C1806  C     0.00517   0.15984   0.07273   0.00000  Uiso   1.00
H1807  H     0.01236   0.16415   0.18859   0.00000  Uiso   1.00
H1808  H    -0.03076   0.17594   0.16559   0.00000  Uiso   1.00
H1809  H     0.02817   0.12017   0.13454   0.00000  Uiso   1.00
H1810  H    -0.05031   0.14604   0.10033   0.00000  Uiso   1.00
H1811  H     0.02817   0.14058   0.06296   0.00000  Uiso   1.00
H1812  H    -0.00661   0.16645   0.04427   0.00000  Uiso   1.00
C1813  C    -0.02070   0.24925   0.02300   0.00000  Uiso   1.00
C1814  C     0.01495   0.31048  -0.02041   0.00000  Uiso   1.00
C1815  C    -0.04916   0.27771   0.00086   0.00000  Uiso   1.00
H1816  H    -0.02875   0.33319   0.01782   0.00000  Uiso   1.00
H1817  H    -0.02099   0.25988   0.05261   0.00000  Uiso   1.00
H1818  H    -0.03306   0.22021   0.02674   0.00000  Uiso   1.00
H1819  H     0.02961   0.33865  -0.02012   0.00000  Uiso   1.00
H1820  H     0.01639   0.30099  -0.05060   0.00000  Uiso   1.00
H1821  H    -0.07618   0.28518   0.01552   0.00000  Uiso   1.00
H1822  H    -0.05635   0.26276  -0.02587   0.00000  Uiso   1.00
H1823  H     0.01581   0.23430  -0.02444   0.00000  Uiso   1.00
C1824  C    -0.02760   0.09602   0.15696   0.00000  Uiso   1.00
C1825  C    -0.02932   0.09343   0.08596   0.00000  Uiso   1.00
C1826  C    -0.04283   0.07130   0.12505   0.00000  Uiso   1.00
H1827  H    -0.01121   0.07963   0.17853   0.00000  Uiso   1.00
H1828  H    -0.05318   0.10809   0.17105   0.00000  Uiso   1.00
H1829  H    -0.00057   0.08423   0.07618   0.00000  Uiso   1.00
H1830  H    -0.04485   0.09717   0.05865   0.00000  Uiso   1.00
H1831  H    -0.07446   0.07043   0.12419   0.00000  Uiso   1.00
O1832  O    -0.01926   0.00431   0.18887   0.00000  Uiso   1.00
H1833  H     0.04025   0.05031   0.10033   0.00000  Uiso   1.00
H1834  H     0.06411   0.07072   0.13684   0.00000  Uiso   1.00
C1835  C    -0.19807   0.46169  -0.19462   0.00000  Uiso   1.00
H1836  H    -0.22452   0.45106  -0.20814   0.00000  Uiso   1.00
O1837  O    -0.09228   0.39874  -0.04916   0.00000  Uiso   1.00
C1838  C     0.56749   0.34929   0.00287   0.00000  Uiso   1.00
H1839  H     0.55282   0.32600   0.01869   0.00000  Uiso   1.00
H1840  H     0.59623   0.34986   0.01581   0.00000  Uiso   1.00
C1841  C     0.42605   0.53184  -0.00920   0.00000  Uiso   1.00
H1842  H     0.41426   0.52666  -0.03795   0.00000  Uiso   1.00
H1843  H     0.44186   0.55915  -0.00977   0.00000  Uiso   1.00
H1844  H     0.40305   0.53903   0.01121   0.00000  Uiso   1.00
C1845  C    -0.06296   0.38235  -0.02444   0.00000  Uiso   1.00
H1846  H    -0.07359   0.37631   0.00460   0.00000  Uiso   1.00
O1847  O     0.03421   0.28461   0.00517   0.00000  Uiso   1.00
H1848  H    -0.04945   0.65775  -0.25787   0.00000  Uiso   1.00
C1849  C     0.39155   0.34153  -0.06382   0.00000  Uiso   1.00
C1850  C     0.42518   0.34124  -0.03450   0.00000  Uiso   1.00
C1851  C     0.40190   0.31479  -0.09774   0.00000  Uiso   1.00
C1852  C     0.44617   0.31450  -0.10292   0.00000  Uiso   1.00
C1853  C     0.45853   0.32284  -0.05980   0.00000  Uiso   1.00
H1854  H     0.38954   0.37142  -0.07388   0.00000  Uiso   1.00
H1855  H     0.42921   0.36941  -0.02099   0.00000  Uiso   1.00
H1856  H     0.41771   0.32198  -0.01064   0.00000  Uiso   1.00
H1857  H     0.39529   0.28633  -0.08567   0.00000  Uiso   1.00
H1858  H     0.45336   0.33808  -0.12275   0.00000  Uiso   1.00
H1859  H     0.45824   0.28662  -0.11212   0.00000  Uiso   1.00
H1860  H     0.46198   0.29380  -0.04715   0.00000  Uiso   1.00
C1861  C     0.44559   0.16128   0.29409   0.00000  Uiso   1.00
H1862  H     0.43783   0.13138   0.30013   0.00000  Uiso   1.00
H1863  H     0.45307   0.18054   0.31795   0.00000  Uiso   1.00
H1864  H     0.47176   0.16300   0.27656   0.00000  Uiso   1.00
O1865  O     0.56835   0.34038  -0.03823   0.00000  Uiso   1.00
C1866  C     0.53443   0.31968  -0.05347   0.00000  Uiso   1.00
C1867  C     0.49705   0.34555  -0.05405   0.00000  Uiso   1.00
H1868  H     0.54018   0.31105  -0.08337   0.00000  Uiso   1.00
H1869  H     0.52781   0.29237  -0.03881   0.00000  Uiso   1.00
H1870  H     0.49504   0.36108  -0.02674   0.00000  Uiso   1.00
H1871  H     0.50108   0.36682  -0.07704   0.00000  Uiso   1.00
H1872  H     0.18974   0.34009  -0.29467   0.00000  Uiso   1.00
C1873  C     0.16444   0.38321  -0.05491   0.00000  Uiso   1.00
H1874  H     0.17191   0.40650  -0.03479   0.00000  Uiso   1.00
H1875  H     0.14259   0.36223  -0.04628   0.00000  Uiso   1.00
C1876  C     0.40017   0.44847  -0.10953   0.00000  Uiso   1.00
H1877  H     0.40247   0.47980  -0.11355   0.00000  Uiso   1.00
H1878  H     0.41167   0.44588  -0.08021   0.00000  Uiso   1.00
C1879  C     0.48124   0.45163  -0.20382   0.00000  Uiso   1.00
H1880  H     0.50108   0.42835  -0.21159   0.00000  Uiso   1.00
C1881  C     0.40132   0.40937   0.06756   0.00000  Uiso   1.00
H1882  H     0.39442   0.43640   0.08279   0.00000  Uiso   1.00
H1883  H     0.38264   0.41512   0.04255   0.00000  Uiso   1.00
H1884  H    -0.25356   0.38436  -0.11844   0.00000  Uiso   1.00
C1885  C     0.18945   0.11039   0.25126   0.00000  Uiso   1.00
H1886  H     0.19261   0.07906   0.24838   0.00000  Uiso   1.00
H1887  H     0.17364   0.11844   0.27742   0.00000  Uiso   1.00
C1888  C     0.41311   0.31307  -0.25155   0.00000  Uiso   1.00
H1889  H     0.43180   0.33520  -0.23890   0.00000  Uiso   1.00
H1890  H     0.42518   0.28461  -0.24465   0.00000  Uiso   1.00
O1891  O     0.35993   0.29064   0.20152   0.00000  Uiso   1.00
C1892  C     0.17881   0.25155   0.19117   0.00000  Uiso   1.00
H1893  H     0.16990   0.24407   0.16156   0.00000  Uiso   1.00
H1894  H     0.18140   0.28317   0.18887   0.00000  Uiso   1.00
H1895  H     0.15495   0.24350   0.20986   0.00000  Uiso   1.00
C1896  C     0.46342   0.40995  -0.35303   0.00000  Uiso   1.00
H1897  H     0.48527   0.38695  -0.35331   0.00000  Uiso   1.00
H1898  H     0.47923   0.43640  -0.36021   0.00000  Uiso   1.00
C1899  C     0.08423   0.28719   0.07158   0.00000  Uiso   1.00
H1900  H     0.09602   0.27828   0.04370   0.00000  Uiso   1.00
H1901  H     0.06210   0.30875   0.06612   0.00000  Uiso   1.00
C1902  C     0.49217   0.48814  -0.22855   0.00000  Uiso   1.00
C1903  C     0.53241   0.50654  -0.22021   0.00000  Uiso   1.00
H1904  H     0.47118   0.51056  -0.22136   0.00000  Uiso   1.00
H1905  H     0.49102   0.48613  -0.25988   0.00000  Uiso   1.00
H1906  H     0.53615   0.53385  -0.23545   0.00000  Uiso   1.00
H1907  H     0.55196   0.48412  -0.23056   0.00000  Uiso   1.00
C1908  C    -0.07532   0.57324  -0.23545   0.00000  Uiso   1.00
H1909  H    -0.05577   0.59278  -0.21992   0.00000  Uiso   1.00
H1910  H    -0.05721   0.55685  -0.25557   0.00000  Uiso   1.00
C1911  C    -0.02731   0.40937  -0.02357   0.00000  Uiso   1.00
H1912  H     0.00000   0.39356  -0.02674   0.00000  Uiso   1.00
H1913  H    -0.02875   0.42633   0.00316   0.00000  Uiso   1.00
H1914  H     0.34958   0.47578  -0.03938   0.00000  Uiso   1.00
O1915  O     0.56576   0.27138   0.31163   0.00000  Uiso   1.00
O1916  O     0.57525   0.33434   0.31163   0.00000  Uiso   1.00
H1917  H     0.59307   0.27713   0.31134   0.00000  Uiso   1.00
C1918  C     0.45537   0.35360   0.10177   0.00000  Uiso   1.00
H1919  H     0.53845   0.30645   0.11930   0.00000  Uiso   1.00
C1920  C     0.35159   0.33233  -0.05031   0.00000  Uiso   1.00
C1921  C     0.21187   0.35015   0.01150   0.00000  Uiso   1.00
H1922  H     0.22021   0.32284   0.06813   0.00000  Uiso   1.00
H1923  H     0.28173   0.28604   0.04715   0.00000  Uiso   1.00
H1924  H     0.30157   0.28921  -0.01581   0.00000  Uiso   1.00
C1925  C     0.53960   0.27914   0.62268   0.00000  Uiso   1.00
C1926  C     0.55627   0.29036   0.65775   0.00000  Uiso   1.00
C1927  C     0.59652   0.33750   0.62153   0.00000  Uiso   1.00
C1928  C     0.58617   0.31824   0.65747   0.00000  Uiso   1.00
C1929  C     0.60371   0.32888   0.69426   0.00000  Uiso   1.00
C1930  C     0.62786   0.36654   0.62153   0.00000  Uiso   1.00
C1931  C     0.54822   0.27368   0.69369   0.00000  Uiso   1.00
C1932  C     0.56289   0.28461   0.72847   0.00000  Uiso   1.00
C1933  C     0.64396   0.37545   0.65804   0.00000  Uiso   1.00
C1934  C     0.63389   0.35648   0.69311   0.00000  Uiso   1.00
C1935  C     0.59192   0.31307   0.72934   0.00000  Uiso   1.00
C1936  C     0.60888   0.32830   0.76383   0.00000  Uiso   1.00
C1937  C     0.65229   0.36654   0.72474   0.00000  Uiso   1.00
C1938  C     0.63907   0.35734   0.76039   0.00000  Uiso   1.00
C1939  C     0.55196   0.29524   0.58703   0.00000  Uiso   1.00
C1940  C     0.54707   0.26132   0.75636   0.00000  Uiso   1.00
C1941  C     0.52178   0.24666   0.70231   0.00000  Uiso   1.00
N1942  N     0.51976   0.23573   0.74256   0.00000  Uiso   1.00
H1943  H     0.51804   0.20785   0.75032   0.00000  Uiso   1.00
C1944  C     0.58014   0.32399   0.58646   0.00000  Uiso   1.00
H1945  H     0.67587   0.38666   0.72100   0.00000  Uiso   1.00
H1946  H     0.66868   0.39471   0.65948   0.00000  Uiso   1.00
H1947  H     0.60083   0.31479   0.79086   0.00000  Uiso   1.00
H1948  H     0.51804   0.25672   0.62009   0.00000  Uiso   1.00
H1949  H     0.55167   0.26161   0.78712   0.00000  Uiso   1.00
H1950  H     0.51229   0.22510   0.68190   0.00000  Uiso   1.00
H1951  H     0.53443   0.28461   0.56346   0.00000  Uiso   1.00
C1952  C     0.59250   0.34181   0.54736   0.00000  Uiso   1.00
C1953  C     0.63303   0.36424   0.54966   0.00000  Uiso   1.00
C1954  C     0.63878   0.39011   0.58560   0.00000  Uiso   1.00
C1955  C     0.65373   0.37574   0.79833   0.00000  Uiso   1.00
C1956  C     0.66695   0.42001   0.79373   0.00000  Uiso   1.00
C1957  C     0.64166   0.44617   0.76872   0.00000  Uiso   1.00
H1958  H     0.67385   0.43151   0.82248   0.00000  Uiso   1.00
H1959  H     0.67558   0.35763   0.81184   0.00000  Uiso   1.00
H1960  H     0.63131   0.37861   0.82047   0.00000  Uiso   1.00
H1961  H     0.61866   0.41455   0.58761   0.00000  Uiso   1.00
H1962  H     0.65689   0.34354   0.54966   0.00000  Uiso   1.00
H1963  H     0.63504   0.37775   0.52091   0.00000  Uiso   1.00
H1964  H     0.56921   0.36136   0.53931   0.00000  Uiso   1.00
H1965  H     0.59192   0.32025   0.52436   0.00000  Uiso   1.00
C1966  C     0.77505   0.61550   0.50597   0.00000  Uiso   1.00
C1967  C     0.78195   0.58014   0.49044   0.00000  Uiso   1.00
C1968  C     0.79920   0.57554   0.45307   0.00000  Uiso   1.00
C1969  C     0.76958   0.54822   0.51171   0.00000  Uiso   1.00
C1970  C     0.75090   0.55052   0.54765   0.00000  Uiso   1.00
C1971  C     0.74199   0.58675   0.56231   0.00000  Uiso   1.00
C1972  C     0.75205   0.61923   0.54046   0.00000  Uiso   1.00
C1973  C     0.80379   0.53816   0.43640   0.00000  Uiso   1.00
C1974  C     0.77303   0.51143   0.49360   0.00000  Uiso   1.00
C1975  C     0.79172   0.50654   0.45681   0.00000  Uiso   1.00
C1976  C     0.78223   0.43927   0.46141   0.00000  Uiso   1.00
C1977  C     0.76182   0.47693   0.51373   0.00000  Uiso   1.00
C1978  C     0.81041   0.60773   0.43410   0.00000  Uiso   1.00
C1979  C     0.81903   0.53529   0.39787   0.00000  Uiso   1.00
C1980  C     0.82564   0.49907   0.38264   0.00000  Uiso   1.00
C1981  C     0.81041   0.46572   0.40161   0.00000  Uiso   1.00
C1982  C     0.79402   0.47032   0.43984   0.00000  Uiso   1.00
H1983  H     0.78885   0.40880   0.45652   0.00000  Uiso   1.00
C1984  C     0.73681   0.51689   0.56634   0.00000  Uiso   1.00
C1985  C     0.74457   0.47980   0.55081   0.00000  Uiso   1.00
C1986  C     0.80408   0.64511   0.45048   0.00000  Uiso   1.00
N1987  N     0.76843   0.44358   0.49705   0.00000  Uiso   1.00
C1988  C     0.78511   0.64884   0.48469   0.00000  Uiso   1.00
H1989  H     0.77965   0.67730   0.49648   0.00000  Uiso   1.00
C1990  C     0.73624   0.44358   0.57237   0.00000  Uiso   1.00
C1991  C     0.69541   0.42835   0.56317   0.00000  Uiso   1.00
H1992  H     0.69685   0.41598   0.53414   0.00000  Uiso   1.00
H1993  H     0.67529   0.45278   0.56174   0.00000  Uiso   1.00
H1994  H     0.75751   0.42116   0.56605   0.00000  Uiso   1.00
H1995  H     0.74112   0.44703   0.60342   0.00000  Uiso   1.00
O1996  O     0.67989   0.40103   0.58905   0.00000  Uiso   1.00
C1997  C     0.82909   0.57151   0.37919   0.00000  Uiso   1.00
C1998  C     0.85295   0.56921   0.34584   0.00000  Uiso   1.00
C1999  C     0.86445   0.53328   0.33233   0.00000  Uiso   1.00
C2000  C     0.88860   0.53414   0.29610   0.00000  Uiso   1.00
C2001  C     0.93201   0.53126   0.30358   0.00000  Uiso   1.00
C2002  C     0.94667   0.49044   0.31910   0.00000  Uiso   1.00
C2003  C     0.94897   0.46227   0.28547   0.00000  Uiso   1.00
H2004  H     0.97628   0.49360   0.33003   0.00000  Uiso   1.00
H2005  H     0.94840   0.53816   0.27742   0.00000  Uiso   1.00
H2006  H     0.94150   0.55340   0.32399   0.00000  Uiso   1.00
H2007  H     0.88659   0.56059   0.27914   0.00000  Uiso   1.00
H2008  H     0.87681   0.51229   0.27684   0.00000  Uiso   1.00
H2009  H     0.86273   0.59652   0.33376   0.00000  Uiso   1.00
C2010  C     0.81644   0.68219   0.42806   0.00000  Uiso   1.00
C2011  C     0.85928   0.68219   0.41656   0.00000  Uiso   1.00
C2012  C     0.86560   0.69254   0.37315   0.00000  Uiso   1.00
O2013  O     0.85295   0.73106   0.36682   0.00000  Uiso   1.00
C2014  C     0.85180   0.74429   0.32687   0.00000  Uiso   1.00
C2015  C     0.85468   0.78655   0.32514   0.00000  Uiso   1.00
C2016  C     0.82679   0.78396   0.25557   0.00000  Uiso   1.00
H2017  H     0.88113   0.79460   0.34066   0.00000  Uiso   1.00
H2018  H     0.83312   0.79776   0.34555   0.00000  Uiso   1.00
H2019  H     0.87566   0.73221   0.31048   0.00000  Uiso   1.00
H2020  H     0.85180   0.66897   0.35676   0.00000  Uiso   1.00
H2021  H     0.89579   0.69139   0.36395   0.00000  Uiso   1.00
H2022  H     0.87451   0.70346   0.43467   0.00000  Uiso   1.00
H2023  H     0.87451   0.65517   0.42202   0.00000  Uiso   1.00
H2024  H     0.81271   0.70720   0.44703   0.00000  Uiso   1.00
H2025  H     0.80006   0.68650   0.40132   0.00000  Uiso   1.00
C2026  C     0.72273   0.59106   0.60141   0.00000  Uiso   1.00
C2027  C     0.71525   0.55254   0.62354   0.00000  Uiso   1.00
C2028  C     0.75061   0.54449   0.64798   0.00000  Uiso   1.00
H2029  H     0.75981   0.56979   0.66465   0.00000  Uiso   1.00
H2030  H     0.77648   0.54046   0.63044   0.00000  Uiso   1.00
H2031  H     0.69254   0.56145   0.64367   0.00000  Uiso   1.00
H2032  H     0.69426   0.60428   0.59710   0.00000  Uiso   1.00
H2033  H     0.73652   0.61090   0.62211   0.00000  Uiso   1.00
C2034  C     0.69340   0.47348   0.72503   0.00000  Uiso   1.00
C2035  C     0.74946   0.50827   0.67414   0.00000  Uiso   1.00
S2036  S     0.72043   0.51919   0.71813   0.00000  Uiso   1.00
H2037  H     0.77993   0.50280   0.68133   0.00000  Uiso   1.00
C2038  C     0.66034   0.48182   0.75291   0.00000  Uiso   1.00
C2039  C     0.62872   0.50683   0.73250   0.00000  Uiso   1.00
C2040  C     0.61090   0.49332   0.69513   0.00000  Uiso   1.00
H2041  H     0.60285   0.46284   0.69829   0.00000  Uiso   1.00
H2042  H     0.63246   0.49217   0.67213   0.00000  Uiso   1.00
H2043  H     0.67069   0.50022   0.77648   0.00000  Uiso   1.00
C2044  C     0.70174   0.72704   0.20124   0.00000  Uiso   1.00
C2045  C     0.76556   0.76067   0.20871   0.00000  Uiso   1.00
C2046  C     0.73106   0.75377   0.18686   0.00000  Uiso   1.00
C2047  C     0.72646   0.76671   0.14776   0.00000  Uiso   1.00
C2048  C     0.79431   0.78597   0.19290   0.00000  Uiso   1.00
C2049  C     0.66552   0.72646   0.18054   0.00000  Uiso   1.00
C2050  C     0.66207   0.74572   0.14661   0.00000  Uiso   1.00
C2051  C     0.79230   0.79345   0.15236   0.00000  Uiso   1.00
C2052  C     0.75809   0.78741   0.13167   0.00000  Uiso   1.00
C2053  C     0.69110   0.76470   0.12850   0.00000  Uiso   1.00
C2054  C     0.74342   0.71525   0.25758   0.00000  Uiso   1.00
C2055  C     0.62642   0.73854   0.13023   0.00000  Uiso   1.00
C2056  C     0.62929   0.70691   0.18657   0.00000  Uiso   1.00
N2057  N     0.60256   0.71726   0.15783   0.00000  Uiso   1.00
H2058  H     0.58675   0.69541   0.14690   0.00000  Uiso   1.00
C2059  C     0.76901   0.74285   0.24407   0.00000  Uiso   1.00
C2060  C     0.80552   0.75032   0.26592   0.00000  Uiso   1.00
C2061  C     0.86992   0.83944   0.27196   0.00000  Uiso   1.00
C2062  C     0.86762   0.85497   0.23545   0.00000  Uiso   1.00
C2063  C     0.84548   0.83341   0.20871   0.00000  Uiso   1.00
C2064  C     0.70950   0.70691   0.23602   0.00000  Uiso   1.00
H2065  H     0.75607   0.79776   0.10206   0.00000  Uiso   1.00
H2066  H     0.68679   0.77850   0.10091   0.00000  Uiso   1.00
H2067  H     0.61607   0.69973   0.21389   0.00000  Uiso   1.00
H2068  H     0.88659   0.85698   0.29179   0.00000  Uiso   1.00
H2069  H     0.74774   0.70461   0.28662   0.00000  Uiso   1.00
C2070  C     0.61118   0.74170   0.08883   0.00000  Uiso   1.00
C2071  C     0.63562   0.71583   0.06095   0.00000  Uiso   1.00
C2072  C     0.61981   0.71611   0.01840   0.00000  Uiso   1.00
C2073  C     0.58301   0.69283   0.01064   0.00000  Uiso   1.00
O2074  O     0.56145   0.68334   0.03594   0.00000  Uiso   1.00
C2075  C     0.57209   0.68190  -0.03047   0.00000  Uiso   1.00
C2076  C     0.53673   0.65603  -0.03277   0.00000  Uiso   1.00
C2077  C     0.52063   0.65316  -0.07474   0.00000  Uiso   1.00
H2078  H     0.50510   0.62556  -0.07273   0.00000  Uiso   1.00
H2079  H     0.51516   0.66782  -0.01294   0.00000  Uiso   1.00
H2080  H     0.54564   0.62757  -0.02185   0.00000  Uiso   1.00
H2081  H     0.56289   0.70806  -0.04571   0.00000  Uiso   1.00
H2082  H     0.61032   0.74544   0.01150   0.00000  Uiso   1.00
H2083  H     0.63044   0.68708   0.07331   0.00000  Uiso   1.00
H2084  H     0.60773   0.77131   0.07906   0.00000  Uiso   1.00
H2085  H     0.58243   0.72876   0.09314   0.00000  Uiso   1.00
C2086  C     0.54190   0.65028  -0.14489   0.00000  Uiso   1.00
C2087  C     0.56806   0.64166  -0.17508   0.00000  Uiso   1.00
C2088  C     0.60601   0.63677  -0.16501   0.00000  Uiso   1.00
C2089  C     0.55311   0.65431  -0.10522   0.00000  Uiso   1.00
C2090  C     0.61722   0.62067  -0.22970   0.00000  Uiso   1.00
C2091  C     0.59278   0.65402  -0.09688   0.00000  Uiso   1.00
C2092  C     0.63131   0.62498  -0.19434   0.00000  Uiso   1.00
C2093  C     0.48843   0.64971  -0.19290   0.00000  Uiso   1.00
C2094  C     0.50137   0.65603  -0.15581   0.00000  Uiso   1.00
C2095  C     0.47492   0.67098  -0.12678   0.00000  Uiso   1.00
C2096  C     0.44904   0.65258  -0.20325   0.00000  Uiso   1.00
C2097  C     0.42403   0.66494  -0.17565   0.00000  Uiso   1.00
C2098  C     0.43582   0.67730  -0.13828   0.00000  Uiso   1.00
C2099  C     0.51488   0.63763  -0.22193   0.00000  Uiso   1.00
H2100  H     0.39414   0.66724  -0.18399   0.00000  Uiso   1.00
C2101  C     0.67012   0.61837  -0.18427   0.00000  Uiso   1.00
C2102  C     0.68334   0.62671  -0.14776   0.00000  Uiso   1.00
N2103  N     0.58071   0.62699  -0.24091   0.00000  Uiso   1.00
C2104  C     0.61837   0.64367  -0.12563   0.00000  Uiso   1.00
C2105  C     0.65804   0.63591  -0.11815   0.00000  Uiso   1.00
C2106  C     0.55455   0.63533  -0.21302   0.00000  Uiso   1.00
C2107  C     0.70260   0.60141  -0.20641   0.00000  Uiso   1.00
C2108  C     0.73652   0.59336  -0.17680   0.00000  Uiso   1.00
C2109  C     0.74860   0.54880  -0.17105   0.00000  Uiso   1.00
H2110  H     0.76297   0.53615  -0.19635   0.00000  Uiso   1.00
H2111  H     0.77246   0.54592  -0.15064   0.00000  Uiso   1.00
H2112  H     0.76355   0.60285  -0.19031   0.00000  Uiso   1.00
H2113  H     0.69225   0.57324  -0.21647   0.00000  Uiso   1.00
H2114  H     0.71036   0.61693  -0.23286   0.00000  Uiso   1.00
H2115  H     0.63533   0.61578  -0.25499   0.00000  Uiso   1.00
H2116  H     0.50855   0.63044  -0.25183   0.00000  Uiso   1.00
H2117  H     0.43984   0.64424  -0.23200   0.00000  Uiso   1.00
H2118  H     0.66753   0.63619  -0.08826   0.00000  Uiso   1.00
C2119  C     0.40736   0.70059  -0.11355   0.00000  Uiso   1.00
C2120  C     0.37804   0.67299  -0.09401   0.00000  Uiso   1.00
C2121  C     0.39414   0.64309  -0.06325   0.00000  Uiso   1.00
H2122  H     0.37890   0.61550  -0.06181   0.00000  Uiso   1.00
H2123  H     0.42375   0.63504  -0.07130   0.00000  Uiso   1.00
H2124  H     0.35389   0.68880  -0.08078   0.00000  Uiso   1.00
H2125  H     0.36366   0.65574  -0.11643   0.00000  Uiso   1.00
H2126  H     0.41771   0.72100  -0.09171   0.00000  Uiso   1.00
O2127  O     0.71525   0.52523  -0.16300   0.00000  Uiso   1.00
C2128  C     0.68593   0.53040  -0.13397   0.00000  Uiso   1.00
C2129  C     0.70346   0.52494  -0.09286   0.00000  Uiso   1.00
C2130  C     0.68133   0.54046  -0.05893   0.00000  Uiso   1.00
C2131  C     0.64827   0.51488  -0.04398   0.00000  Uiso   1.00
H2132  H     0.64913   0.48440  -0.05203   0.00000  Uiso   1.00
H2133  H     0.61866   0.52436  -0.04887   0.00000  Uiso   1.00
H2134  H     0.66638   0.56634  -0.06957   0.00000  Uiso   1.00
H2135  H     0.70663   0.49360  -0.09171   0.00000  Uiso   1.00
H2136  H     0.73336   0.53529  -0.09516   0.00000  Uiso   1.00
H2137  H     0.67184   0.55886  -0.13512   0.00000  Uiso   1.00
H2138  H     0.66207   0.51028  -0.13914   0.00000  Uiso   1.00
C2139  C     0.70950   0.57439   0.12678   0.00000  Uiso   1.00
C2140  C     0.67845   0.54765   0.11700   0.00000  Uiso   1.00
C2141  C     0.72876   0.59163   0.09458   0.00000  Uiso   1.00
C2142  C     0.75809   0.56001   0.23947   0.00000  Uiso   1.00
C2143  C     0.77878   0.54995   0.27196   0.00000  Uiso   1.00
C2144  C     0.75751   0.53213   0.30243   0.00000  Uiso   1.00
C2145  C     0.66839   0.53788   0.07762   0.00000  Uiso   1.00
C2146  C     0.72071   0.57956   0.05548   0.00000  Uiso   1.00
C2147  C     0.68995   0.55282   0.04772   0.00000  Uiso   1.00
C2148  C     0.65747   0.52983   0.14748   0.00000  Uiso   1.00
C2149  C     0.63591   0.51488   0.06871   0.00000  Uiso   1.00
C2150  C     0.62757   0.50597   0.03047   0.00000  Uiso   1.00
C2151  C     0.65229   0.51775   0.00057   0.00000  Uiso   1.00
C2152  C     0.68277   0.54276   0.00949   0.00000  Uiso   1.00
H2153  H     0.74687   0.62987   0.19980   0.00000  Uiso   1.00
C2154  C     0.66695   0.53701   0.18686   0.00000  Uiso   1.00
C2155  C     0.70145   0.55886   0.19721   0.00000  Uiso   1.00
C2156  C     0.61291   0.49935   0.09918   0.00000  Uiso   1.00
C2157  C     0.62469   0.50769   0.13828   0.00000  Uiso   1.00
C2158  C     0.64597   0.51919   0.21647   0.00000  Uiso   1.00
C2159  C     0.61176   0.49792   0.20641   0.00000  Uiso   1.00
C2160  C     0.60083   0.49274   0.16760   0.00000  Uiso   1.00
C2161  C     0.71985   0.54822   0.23228   0.00000  Uiso   1.00
C2162  C     0.69829   0.53040   0.26074   0.00000  Uiso   1.00
C2163  C     0.65919   0.52178   0.25586   0.00000  Uiso   1.00
C2164  C     0.58703   0.47693   0.23660   0.00000  Uiso   1.00
H2165  H     0.59077   0.44559   0.23803   0.00000  Uiso   1.00
H2166  H     0.55685   0.47980   0.22768   0.00000  Uiso   1.00
C2167  C     0.71813   0.58186   0.16616   0.00000  Uiso   1.00
H2168  H     0.57467   0.47635   0.16156   0.00000  Uiso   1.00
H2169  H     0.73796   0.58905   0.03105   0.00000  Uiso   1.00
H2170  H     0.60428   0.48728   0.02156   0.00000  Uiso   1.00
C2171  C     0.57899   0.47147   0.09084   0.00000  Uiso   1.00
C2172  C     0.54104   0.49303   0.08768   0.00000  Uiso   1.00
H2173  H     0.54765   0.51574   0.06641   0.00000  Uiso   1.00
H2174  H     0.57899   0.44876   0.11298   0.00000  Uiso   1.00
C2175  C     0.59163   0.49964   0.27483   0.00000  Uiso   1.00
O2176  O     0.56519   0.48383   0.30042   0.00000  Uiso   1.00
C2177  C     0.52868   0.50165   0.31134   0.00000  Uiso   1.00
C2178  C     0.49763   0.48958   0.28202   0.00000  Uiso   1.00
C2179  C     0.49562   0.44646   0.27109   0.00000  Uiso   1.00
H2180  H     0.52350   0.43295   0.27828   0.00000  Uiso   1.00
H2181  H     0.49389   0.44272   0.23976   0.00000  Uiso   1.00
H2182  H     0.46917   0.49475   0.29524   0.00000  Uiso   1.00
H2183  H     0.50424   0.50740   0.25701   0.00000  Uiso   1.00
H2184  H     0.52839   0.53328   0.31335   0.00000  Uiso   1.00
H2185  H     0.51976   0.49044   0.33951   0.00000  Uiso   1.00
C2186  C     0.71238   0.62124   0.42605   0.00000  Uiso   1.00
C2187  C     0.68995   0.59163   0.44329   0.00000  Uiso   1.00
C2188  C     0.64769   0.57266   0.49590   0.00000  Uiso   1.00
C2189  C     0.63016   0.58646   0.52839   0.00000  Uiso   1.00
C2190  C     0.66580   0.60055   0.47463   0.00000  Uiso   1.00
C2191  C     0.66638   0.63591   0.49015   0.00000  Uiso   1.00
S2192  S     0.64022   0.63677   0.53241   0.00000  Uiso   1.00
C2193  C     0.64568   0.53299   0.48527   0.00000  Uiso   1.00
C2194  C     0.62469   0.50913   0.50999   0.00000  Uiso   1.00
C2195  C     0.62124   0.46543   0.50079   0.00000  Uiso   1.00
H2196  H     0.61808   0.44789   0.52666   0.00000  Uiso   1.00
H2197  H     0.64884   0.45422   0.49044   0.00000  Uiso   1.00
C2198  C     0.59250   0.45307   0.46974   0.00000  Uiso   1.00
C2199  C     0.54535   0.38522   0.43898   0.00000  Uiso   1.00
C2200  C     0.51229   0.36395   0.41742   0.00000  Uiso   1.00
C2201  C     0.29610   0.29495   0.40247   0.00000  Uiso   1.00
C2202  C     0.32284   0.28317   0.36884   0.00000  Uiso   1.00
C2203  C     0.34871   0.41282   0.24062   0.00000  Uiso   1.00
C2204  C     0.37746   0.43640   0.22136   0.00000  Uiso   1.00
C2205  C     0.42748   0.41570   0.27167   0.00000  Uiso   1.00
C2206  C     0.41483   0.43841   0.23832   0.00000  Uiso   1.00
C2207  C     0.46428   0.42202   0.29007   0.00000  Uiso   1.00
C2208  C     0.30933   0.40995   0.22826   0.00000  Uiso   1.00
C2209  C     0.28576   0.38235   0.24695   0.00000  Uiso   1.00
C2210  C     0.30128   0.35906   0.27598   0.00000  Uiso   1.00
C2211  C     0.27224   0.33463   0.28691   0.00000  Uiso   1.00
C2212  C     0.24781   0.37602   0.24378   0.00000  Uiso   1.00
N2213  N     0.23775   0.34296   0.26736   0.00000  Uiso   1.00
C2214  C     0.22510   0.39299   0.21216   0.00000  Uiso   1.00
C2215  C     0.24206   0.43295   0.19951   0.00000  Uiso   1.00
C2216  C     0.22395   0.45106   0.16243   0.00000  Uiso   1.00
C2217  C     0.20584   0.49102   0.17134   0.00000  Uiso   1.00
H2218  H     0.22510   0.51401   0.18083   0.00000  Uiso   1.00
H2219  H     0.18514   0.48814   0.19491   0.00000  Uiso   1.00
H2220  H     0.20181   0.43093   0.15208   0.00000  Uiso   1.00
H2221  H     0.19491   0.39557   0.22078   0.00000  Uiso   1.00
H2222  H     0.22251   0.37401   0.18715   0.00000  Uiso   1.00
H2223  H     0.21561   0.32514   0.26161   0.00000  Uiso   1.00
H2224  H     0.43726   0.45479   0.22395   0.00000  Uiso   1.00
C2225  C     0.31537   0.30875   0.33463   0.00000  Uiso   1.00
H2226  H     0.24378   0.45479   0.13799   0.00000  Uiso   1.00
H2227  H     0.24033   0.45278   0.22452   0.00000  Uiso   1.00
H2228  H     0.31623   0.25241   0.36452   0.00000  Uiso   1.00
H2229  H     0.35274   0.28029   0.37861   0.00000  Uiso   1.00
H2230  H     0.30530   0.27742   0.42720   0.00000  Uiso   1.00
H2231  H     0.26592   0.28633   0.39730   0.00000  Uiso   1.00
H2232  H     0.49389   0.34900   0.43841   0.00000  Uiso   1.00
H2233  H     0.39299   0.65775  -0.03536   0.00000  Uiso   1.00
C2234  C     0.61118   0.56202   0.55512   0.00000  Uiso   1.00
C2235  C     0.60802   0.52235   0.54449   0.00000  Uiso   1.00
C2236  C     0.82392   0.79977   0.21762   0.00000  Uiso   1.00
C2237  C     0.68622   0.66638   0.47377   0.00000  Uiso   1.00
C2238  C     0.71008   0.65948   0.44128   0.00000  Uiso   1.00
H2239  H     0.72618   0.68478   0.43266   0.00000  Uiso   1.00
H2240  H     0.68650   0.69570   0.48469   0.00000  Uiso   1.00
H2241  H     0.84145   0.84720   0.18083   0.00000  Uiso   1.00
C2242  C     0.33635   0.36136   0.28949   0.00000  Uiso   1.00
C2243  C     0.36165   0.38724   0.27224   0.00000  Uiso   1.00
C2244  C     0.39989   0.39011   0.28633   0.00000  Uiso   1.00
C2245  C     0.40736   0.36826   0.32083   0.00000  Uiso   1.00
C2246  C     0.47089   0.40075   0.32370   0.00000  Uiso   1.00
C2247  C     0.44272   0.37689   0.33923   0.00000  Uiso   1.00
C2248  C     0.38062   0.34181   0.33923   0.00000  Uiso   1.00
C2249  C     0.34440   0.33664   0.32198   0.00000  Uiso   1.00
H2250  H     0.39040   0.32744   0.36539   0.00000  Uiso   1.00
C2251  C     0.37344   0.46026   0.18427   0.00000  Uiso   1.00
C2252  C     0.36194   0.50367   0.18945   0.00000  Uiso   1.00
C2253  C     0.34383   0.51229   0.23085   0.00000  Uiso   1.00
H2254  H     0.36567   0.50654   0.25270   0.00000  Uiso   1.00
H2255  H     0.33865   0.54363   0.23286   0.00000  Uiso   1.00
H2256  H     0.31882   0.49533   0.24005   0.00000  Uiso   1.00
H2257  H     0.38781   0.52034   0.18226   0.00000  Uiso   1.00
H2258  H     0.35130   0.44703   0.16588   0.00000  Uiso   1.00
H2259  H     0.71525   0.45278   0.73480   0.00000  Uiso   1.00
H2260  H     0.73307   0.61722   0.40305   0.00000  Uiso   1.00
H2261  H     0.77735   0.59997   0.17191   0.00000  Uiso   1.00
O2262  O     0.69714   0.50482   0.32629   0.00000  Uiso   1.00
C2263  C     0.70461   0.50453   0.36826   0.00000  Uiso   1.00
C2264  C     0.69455   0.54420   0.38494   0.00000  Uiso   1.00
C2265  C     0.69196   0.54794   0.42978   0.00000  Uiso   1.00
H2266  H     0.71870   0.53529   0.44042   0.00000  Uiso   1.00
H2267  H     0.66667   0.55397   0.37344   0.00000  Uiso   1.00
H2268  H     0.71726   0.56346   0.37430   0.00000  Uiso   1.00
H2269  H     0.68737   0.48009   0.37832   0.00000  Uiso   1.00
H2270  H     0.73566   0.49964   0.37200   0.00000  Uiso   1.00
H2271  H     0.68420   0.45824   0.69886   0.00000  Uiso   1.00
H2272  H     0.73739   0.48498   0.65632   0.00000  Uiso   1.00
C2273  C     0.85180   0.49849   0.35015   0.00000  Uiso   1.00
H2274  H     0.86215   0.47204   0.33664   0.00000  Uiso   1.00
H2275  H     0.92942   0.47750   0.34210   0.00000  Uiso   1.00
H2276  H     0.69541   0.42001   0.77993   0.00000  Uiso   1.00
H2277  H     0.52408   0.33808   0.40362   0.00000  Uiso   1.00
H2278  H     0.52005   0.47377   0.07417   0.00000  Uiso   1.00
H2279  H     0.58243   0.45249   0.06555   0.00000  Uiso   1.00
H2280  H     0.58358   0.52983   0.26851   0.00000  Uiso   1.00
H2281  H     0.66609   0.72359   0.06440   0.00000  Uiso   1.00
H2282  H     0.34038   0.51028   0.16731   0.00000  Uiso   1.00
H2283  H     0.39672   0.45997   0.16271   0.00000  Uiso   1.00
C2284  C     0.60112   0.57841   0.59566   0.00000  Uiso   1.00
C2285  C     0.59796   0.54736   0.62441   0.00000  Uiso   1.00
C2286  C     0.57007   0.51631   0.60745   0.00000  Uiso   1.00
C2287  C     0.58905   0.49533   0.57266   0.00000  Uiso   1.00
H2288  H     0.62642   0.59451   0.60543   0.00000  Uiso   1.00
H2289  H     0.57812   0.59997   0.59623   0.00000  Uiso   1.00
H2290  H     0.62613   0.53385   0.62814   0.00000  Uiso   1.00
H2291  H     0.54449   0.53069   0.59566   0.00000  Uiso   1.00
H2292  H     0.61061   0.47520   0.58358   0.00000  Uiso   1.00
H2293  H     0.56749   0.47779   0.55771   0.00000  Uiso   1.00
C2294  C     0.60946   0.42231   0.44013   0.00000  Uiso   1.00
C2295  C     0.53040   0.41857   0.46572   0.00000  Uiso   1.00
C2296  C     0.57755   0.40247   0.41340   0.00000  Uiso   1.00
H2297  H     0.55512   0.36136   0.45709   0.00000  Uiso   1.00
H2298  H     0.62469   0.40075   0.45796   0.00000  Uiso   1.00
H2299  H     0.63102   0.43381   0.42058   0.00000  Uiso   1.00
H2300  H     0.50539   0.40995   0.48297   0.00000  Uiso   1.00
H2301  H     0.52178   0.44301   0.44761   0.00000  Uiso   1.00
H2302  H     0.59163   0.38034   0.39529   0.00000  Uiso   1.00
H2303  H     0.56547   0.42403   0.39385   0.00000  Uiso   1.00
H2304  H     0.58243   0.47923   0.45508   0.00000  Uiso   1.00
C2305  C     0.58330   0.55599   0.66580   0.00000  Uiso   1.00
C2306  C     0.55484   0.49389   0.64511   0.00000  Uiso   1.00
C2307  C     0.57410   0.51603   0.68219   0.00000  Uiso   1.00
H2308  H     0.60342   0.57324   0.68305   0.00000  Uiso   1.00
H2309  H     0.55857   0.57496   0.66207   0.00000  Uiso   1.00
H2310  H     0.56145   0.46313   0.64309   0.00000  Uiso   1.00
H2311  H     0.52321   0.49705   0.64338   0.00000  Uiso   1.00
H2312  H     0.55311   0.51545   0.70576   0.00000  Uiso   1.00
O2313  O     0.61665   0.53615   0.74774   0.00000  Uiso   1.00
H2314  H     0.61952   0.45853   0.78770   0.00000  Uiso   1.00
H2315  H     0.63159   0.42806   0.74457   0.00000  Uiso   1.00
C2316  C     0.28001   0.30674   0.31508   0.00000  Uiso   1.00
H2317  H     0.25586   0.28921   0.32543   0.00000  Uiso   1.00
O2318  O     0.45479   0.36338   0.37516   0.00000  Uiso   1.00
C2319  C     0.82766   0.80293   0.12879   0.00000  Uiso   1.00
H2320  H     0.85267   0.79833   0.14776   0.00000  Uiso   1.00
H2321  H     0.82593   0.83398   0.12333   0.00000  Uiso   1.00
C2322  C     0.68219   0.67615   0.25183   0.00000  Uiso   1.00
H2323  H     0.69484   0.65057   0.26563   0.00000  Uiso   1.00
H2324  H     0.66379   0.66379   0.22912   0.00000  Uiso   1.00
H2325  H     0.66379   0.68564   0.27569   0.00000  Uiso   1.00
C2326  C     0.48440   0.38896   0.39069   0.00000  Uiso   1.00
H2327  H     0.47061   0.41397   0.40448   0.00000  Uiso   1.00
O2328  O     0.56030   0.43208   0.48699   0.00000  Uiso   1.00
H2329  H     0.18772   0.50108   0.14748   0.00000  Uiso   1.00
C2330  C     0.75205   0.64424   0.13799   0.00000  Uiso   1.00
C2331  C     0.78770   0.67040   0.13972   0.00000  Uiso   1.00
C2332  C     0.76182   0.61751   0.10148   0.00000  Uiso   1.00
C2333  C     0.77102   0.64827   0.07187   0.00000  Uiso   1.00
C2334  C     0.79977   0.67357   0.09602   0.00000  Uiso   1.00
H2335  H     0.72560   0.66149   0.13397   0.00000  Uiso   1.00
H2336  H     0.77878   0.69973   0.14690   0.00000  Uiso   1.00
H2337  H     0.81041   0.66005   0.15926   0.00000  Uiso   1.00
H2338  H     0.78770   0.59997   0.10694   0.00000  Uiso   1.00
H2339  H     0.74400   0.66293   0.06382   0.00000  Uiso   1.00
H2340  H     0.78396   0.63533   0.04600   0.00000  Uiso   1.00
H2341  H     0.82909   0.66207   0.09171   0.00000  Uiso   1.00
C2342  C     0.81558   0.42633   0.38321   0.00000  Uiso   1.00
H2343  H     0.84605   0.42087   0.38982   0.00000  Uiso   1.00
H2344  H     0.81127   0.42490   0.35188   0.00000  Uiso   1.00
H2345  H     0.79431   0.40678   0.39615   0.00000  Uiso   1.00
O2346  O     0.83254   0.77907   0.09429   0.00000  Uiso   1.00
C2347  C     0.83542   0.73854   0.10206   0.00000  Uiso   1.00
C2348  C     0.80552   0.71669   0.07791   0.00000  Uiso   1.00
H2349  H     0.86417   0.72732   0.09429   0.00000  Uiso   1.00
H2350  H     0.83369   0.73106   0.13282   0.00000  Uiso   1.00
H2351  H     0.77936   0.73422   0.07906   0.00000  Uiso   1.00
H2352  H     0.81644   0.71324   0.04830   0.00000  Uiso   1.00
H2353  H     0.53184   0.50137   0.11672   0.00000  Uiso   1.00
C2354  C     0.63159   0.50280   0.28892   0.00000  Uiso   1.00
H2355  H     0.63246   0.52264   0.31335   0.00000  Uiso   1.00
H2356  H     0.64281   0.47348   0.29409   0.00000  Uiso   1.00
C2357  C     0.49044   0.68219  -0.08653   0.00000  Uiso   1.00
H2358  H     0.50252   0.71123  -0.08452   0.00000  Uiso   1.00
H2359  H     0.46831   0.68593  -0.06411   0.00000  Uiso   1.00
C2360  C     0.60543   0.66408  -0.05433   0.00000  Uiso   1.00
H2361  H     0.61866   0.63849  -0.04168   0.00000  Uiso   1.00
C2362  C     0.81328   0.72962   0.30502   0.00000  Uiso   1.00
H2363  H     0.78942   0.74055   0.32313   0.00000  Uiso   1.00
H2364  H     0.81644   0.69829   0.30243   0.00000  Uiso   1.00
H2365  H     0.29869   0.32600   0.40678   0.00000  Uiso   1.00
C2366  C     0.70461   0.52120   0.59537   0.00000  Uiso   1.00
H2367  H     0.67759   0.52954   0.58157   0.00000  Uiso   1.00
H2368  H     0.69858   0.49360   0.60946   0.00000  Uiso   1.00
C2369  C     0.70433   0.55541  -0.02559   0.00000  Uiso   1.00
H2370  H     0.70461   0.58703  -0.02530   0.00000  Uiso   1.00
H2371  H     0.73422   0.54535  -0.02329   0.00000  Uiso   1.00
O2372  O     0.82421   0.60543   0.39701   0.00000  Uiso   1.00
C2373  C     0.74055   0.66005   0.55771   0.00000  Uiso   1.00
H2374  H     0.71295   0.66264   0.57324   0.00000  Uiso   1.00
H2375  H     0.73422   0.68104   0.53500   0.00000  Uiso   1.00
H2376  H     0.76039   0.67529   0.57697   0.00000  Uiso   1.00
C2377  C     0.72589   0.61636  -0.13885   0.00000  Uiso   1.00
H2378  H     0.73077   0.59825  -0.11355   0.00000  Uiso   1.00
H2379  H     0.74716   0.63964  -0.13655   0.00000  Uiso   1.00
C2380  C     0.65833   0.52178   0.44531   0.00000  Uiso   1.00
H2381  H     0.66667   0.49130   0.44531   0.00000  Uiso   1.00
H2382  H     0.63159   0.52666   0.42921   0.00000  Uiso   1.00
C2383  C     0.63792   0.69743  -0.05203   0.00000  Uiso   1.00
C2384  C     0.65028   0.70461  -0.01092   0.00000  Uiso   1.00
H2385  H     0.62354   0.72388  -0.06152   0.00000  Uiso   1.00
H2386  H     0.66408   0.69685  -0.07015   0.00000  Uiso   1.00
H2387  H     0.67328   0.72646  -0.00977   0.00000  Uiso   1.00
H2388  H     0.66523   0.67874  -0.00086   0.00000  Uiso   1.00
C2389  C     0.28633   0.43065   0.19577   0.00000  Uiso   1.00
H2390  H     0.29783   0.45968   0.19290   0.00000  Uiso   1.00
H2391  H     0.29352   0.41771   0.16789   0.00000  Uiso   1.00
C2392  C     0.50280   0.40650   0.35446   0.00000  Uiso   1.00
H2393  H     0.53184   0.39615   0.34641   0.00000  Uiso   1.00
H2394  H     0.50798   0.43726   0.35906   0.00000  Uiso   1.00
H2395  H     0.38810   0.71928  -0.13023   0.00000  Uiso   1.00
O2396  O     0.98232   0.46227   0.26764   0.00000  Uiso   1.00
O2397  O     0.92022   0.45106   0.26937   0.00000  Uiso   1.00
H2398  H     0.97571   0.45709   0.24091   0.00000  Uiso   1.00
C2399  C     0.85180   0.80408   0.28346   0.00000  Uiso   1.00
H2400  H     0.88084   0.88285   0.22941   0.00000  Uiso   1.00
C2401  C     0.74946   0.61463   0.17249   0.00000  Uiso   1.00
C2402  C     0.71813   0.52091   0.29754   0.00000  Uiso   1.00
H2403  H     0.77016   0.52580   0.33031   0.00000  Uiso   1.00
H2404  H     0.80839   0.55800   0.27799   0.00000  Uiso   1.00
H2405  H     0.77878   0.57094   0.21877   0.00000  Uiso   1.00
C2406  C     0.86704   0.31450   0.82104   0.00000  Uiso   1.00
C2407  C     0.83484   0.30674   0.79776   0.00000  Uiso   1.00
C2408  C     0.87336   0.31192   0.74084   0.00000  Uiso   1.00
C2409  C     0.83800   0.30617   0.75751   0.00000  Uiso   1.00
C2410  C     0.80466   0.29869   0.73451   0.00000  Uiso   1.00
C2411  C     0.87768   0.30875   0.69886   0.00000  Uiso   1.00
C2412  C     0.79833   0.29840   0.81529   0.00000  Uiso   1.00
C2413  C     0.76527   0.29380   0.79345   0.00000  Uiso   1.00
C2414  C     0.84519   0.29898   0.67644   0.00000  Uiso   1.00
C2415  C     0.80897   0.29668   0.69426   0.00000  Uiso   1.00
C2416  C     0.76757   0.29725   0.75205   0.00000  Uiso   1.00
C2417  C     0.73652   0.28978   0.73049   0.00000  Uiso   1.00
C2418  C     0.77390   0.28719   0.67299   0.00000  Uiso   1.00
C2419  C     0.73882   0.28633   0.69024   0.00000  Uiso   1.00
C2420  C     0.90240   0.32140   0.80351   0.00000  Uiso   1.00
C2421  C     0.73422   0.29150   0.81961   0.00000  Uiso   1.00
C2422  C     0.78655   0.29582   0.85267   0.00000  Uiso   1.00
N2423  N     0.74659   0.29093   0.85842   0.00000  Uiso   1.00
H2424  H     0.73192   0.30789   0.87681   0.00000  Uiso   1.00
C2425  C     0.90585   0.32140   0.76355   0.00000  Uiso   1.00
H2426  H     0.77505   0.28202   0.64223   0.00000  Uiso   1.00
H2427  H     0.84462   0.29582   0.64539   0.00000  Uiso   1.00
H2428  H     0.71094   0.28489   0.74802   0.00000  Uiso   1.00
H2429  H     0.86647   0.30875   0.85180   0.00000  Uiso   1.00
H2430  H     0.70548   0.27972   0.81616   0.00000  Uiso   1.00
H2431  H     0.80494   0.29898   0.87768   0.00000  Uiso   1.00
H2432  H     0.92655   0.32457   0.82334   0.00000  Uiso   1.00
C2433  C     0.94466   0.33290   0.74601   0.00000  Uiso   1.00
C2434  C     0.94121   0.34210   0.70289   0.00000  Uiso   1.00
C2435  C     0.91936   0.31163   0.67932   0.00000  Uiso   1.00
C2436  C     0.70433   0.27397   0.66753   0.00000  Uiso   1.00
C2437  C     0.69426   0.23200   0.67012   0.00000  Uiso   1.00
C2438  C     0.71870   0.20497   0.64252   0.00000  Uiso   1.00
H2439  H     0.69541   0.22165   0.70001   0.00000  Uiso   1.00
H2440  H     0.70720   0.28748   0.63936   0.00000  Uiso   1.00
H2441  H     0.67960   0.28892   0.68018   0.00000  Uiso   1.00
H2442  H     0.93316   0.28317   0.67960   0.00000  Uiso   1.00
H2443  H     0.92712   0.37056   0.70116   0.00000  Uiso   1.00
H2444  H     0.97140   0.34210   0.69340   0.00000  Uiso   1.00
H2445  H     0.96737   0.31134   0.75061   0.00000  Uiso   1.00
H2446  H     0.95558   0.35734   0.76297   0.00000  Uiso   1.00
C2447  C     1.00388   0.12505   0.66437   0.00000  Uiso   1.00
C2448  C     1.02257   0.16099   0.66235   0.00000  Uiso   1.00
C2449  C     1.06253   0.16271   0.67414   0.00000  Uiso   1.00
C2450  C     1.00618   0.19520   0.64396   0.00000  Uiso   1.00
C2451  C     0.96852   0.19232   0.62958   0.00000  Uiso   1.00
C2452  C     0.94868   0.15581   0.63246   0.00000  Uiso   1.00
C2453  C     0.96910   0.12160   0.64511   0.00000  Uiso   1.00
C2454  C     1.08668   0.19434   0.66609   0.00000  Uiso   1.00
C2455  C     1.02774   0.22740   0.63936   0.00000  Uiso   1.00
C2456  C     1.06885   0.22740   0.64971   0.00000  Uiso   1.00
C2457  C     1.07115   0.29064   0.62441   0.00000  Uiso   1.00
C2458  C     1.01222   0.26017   0.62009   0.00000  Uiso   1.00
C2459  C     1.07949   0.12994   0.69139   0.00000  Uiso   1.00
C2460  C     1.12606   0.19347   0.67615   0.00000  Uiso   1.00
C2461  C     1.14877   0.22797   0.66954   0.00000  Uiso   1.00
C2462  C     1.13037   0.26132   0.65057   0.00000  Uiso   1.00
C2463  C     1.09127   0.26046   0.64194   0.00000  Uiso   1.00
H2464  H     1.08783   0.31623   0.61693   0.00000  Uiso   1.00
C2465  C     0.94955   0.22625   0.61521   0.00000  Uiso   1.00
C2466  C     0.97312   0.26103   0.60946   0.00000  Uiso   1.00
C2467  C     1.05850   0.09602   0.69599   0.00000  Uiso   1.00
N2468  N     1.03493   0.29093   0.61205   0.00000  Uiso   1.00
C2469  C     1.02084   0.09343   0.68162   0.00000  Uiso   1.00
H2470  H     1.00446   0.06698   0.68564   0.00000  Uiso   1.00
C2471  C     0.95386   0.29697   0.58933   0.00000  Uiso   1.00
C2472  C     0.94322   0.33319   0.61435   0.00000  Uiso   1.00
H2473  H     0.93805   0.35705   0.59393   0.00000  Uiso   1.00
H2474  H     0.96910   0.34440   0.62843   0.00000  Uiso   1.00
H2475  H     0.97715   0.30703   0.57065   0.00000  Uiso   1.00
H2476  H     0.93086   0.28489   0.57122   0.00000  Uiso   1.00
O2477  O     0.91361   0.32342   0.63993   0.00000  Uiso   1.00
C2478  C     1.14130   0.16041   0.69168   0.00000  Uiso   1.00
C2479  C     1.18126   0.16041   0.70174   0.00000  Uiso   1.00
C2480  C     1.20454   0.19117   0.69570   0.00000  Uiso   1.00
C2481  C     1.24536   0.18600   0.70059   0.00000  Uiso   1.00
C2482  C     1.26750   0.21877   0.72244   0.00000  Uiso   1.00
C2483  C     1.31005   0.20727   0.73049   0.00000  Uiso   1.00
C2484  C     1.33736   0.20267   0.69340   0.00000  Uiso   1.00
H2485  H     1.32557   0.22826   0.74831   0.00000  Uiso   1.00
H2486  H     1.26779   0.24580   0.70576   0.00000  Uiso   1.00
H2487  H     1.25313   0.22768   0.74889   0.00000  Uiso   1.00
H2488  H     1.25715   0.18111   0.67184   0.00000  Uiso   1.00
H2489  H     1.24968   0.15869   0.71611   0.00000  Uiso   1.00
H2490  H     1.19074   0.13368   0.71496   0.00000  Uiso   1.00
C2491  C     1.07345   0.06267   0.72330   0.00000  Uiso   1.00
C2492  C     1.11427   0.04456   0.71611   0.00000  Uiso   1.00
C2493  C     1.12664   0.01265   0.74601   0.00000  Uiso   1.00
O2494  O     1.16343  -0.00575   0.73394   0.00000  Uiso   1.00
C2495  C     1.19851   0.01380   0.74256   0.00000  Uiso   1.00
C2496  C     1.21432   0.03392   0.70576   0.00000  Uiso   1.00
C2497  C     1.27986   0.04053   0.74256   0.00000  Uiso   1.00
H2498  H     1.19419   0.05405   0.69196   0.00000  Uiso   1.00
H2499  H     1.21978   0.01121   0.68449   0.00000  Uiso   1.00
H2500  H     1.19391   0.03565   0.76498   0.00000  Uiso   1.00
H2501  H     1.10651  -0.01179   0.74227   0.00000  Uiso   1.00
H2502  H     1.12721   0.02329   0.77562   0.00000  Uiso   1.00
H2503  H     1.11226   0.03019   0.68794   0.00000  Uiso   1.00
H2504  H     1.13727   0.06612   0.71611   0.00000  Uiso   1.00
H2505  H     1.05333   0.03852   0.72043   0.00000  Uiso   1.00
H2506  H     1.07431   0.07273   0.75320   0.00000  Uiso   1.00
C2507  C     0.90614   0.15380   0.61693   0.00000  Uiso   1.00
C2508  C     0.88170   0.19117   0.62009   0.00000  Uiso   1.00
C2509  C     0.83973   0.18772   0.60198   0.00000  Uiso   1.00
H2510  H     0.84433   0.18485   0.57094   0.00000  Uiso   1.00
H2511  H     0.82651   0.21619   0.60457   0.00000  Uiso   1.00
H2512  H     0.87394   0.19807   0.64999   0.00000  Uiso   1.00
H2513  H     0.88946   0.12965   0.62872   0.00000  Uiso   1.00
H2514  H     0.91160   0.14776   0.58646   0.00000  Uiso   1.00
C2515  C     0.73279   0.13425   0.61866   0.00000  Uiso   1.00
C2516  C     0.81041   0.15610   0.61636   0.00000  Uiso   1.00
S2517  S     0.76786   0.15926   0.58588   0.00000  Uiso   1.00
H2518  H     0.80236   0.16501   0.64568   0.00000  Uiso   1.00
C2519  C     0.72186   0.16185   0.65488   0.00000  Uiso   1.00
C2520  C     0.74802   0.15208   0.68880   0.00000  Uiso   1.00
C2521  C     0.75809   0.18226   0.71813   0.00000  Uiso   1.00
H2522  H     0.73250   0.18312   0.73624   0.00000  Uiso   1.00
H2523  H     0.76039   0.21101   0.70490   0.00000  Uiso   1.00
H2524  H     0.69283   0.15438   0.66494   0.00000  Uiso   1.00
C2525  C     1.35863  -0.05606   0.82622   0.00000  Uiso   1.00
C2526  C     1.33851   0.00316   0.78626   0.00000  Uiso   1.00
C2527  C     1.36496  -0.01782   0.80782   0.00000  Uiso   1.00
C2528  C     1.40204  -0.00172   0.81041   0.00000  Uiso   1.00
C2529  C     1.34627   0.03881   0.77102   0.00000  Uiso   1.00
C2530  C     1.39255  -0.07417   0.84232   0.00000  Uiso   1.00
C2531  C     1.42820  -0.05778   0.84260   0.00000  Uiso   1.00
C2532  C     1.38134   0.05721   0.77993   0.00000  Uiso   1.00
C2533  C     1.40952   0.03565   0.80034   0.00000  Uiso   1.00
C2534  C     1.43309  -0.02099   0.82651   0.00000  Uiso   1.00
C2535  C     1.29395  -0.05261   0.79603   0.00000  Uiso   1.00
C2536  C     1.45724  -0.07934   0.85957   0.00000  Uiso   1.00
C2537  C     1.40233  -0.11010   0.85870   0.00000  Uiso   1.00
N2538  N     1.44258  -0.11557   0.86877   0.00000  Uiso   1.00
H2539  H     1.45724  -0.13569   0.88371   0.00000  Uiso   1.00
C2540  C     1.30114  -0.01409   0.78108   0.00000  Uiso   1.00
C2541  C     1.27038   0.00517   0.76182   0.00000  Uiso   1.00
C2542  C     1.26290   0.08739   0.69369   0.00000  Uiso   1.00
C2543  C     1.29884   0.10407   0.69685   0.00000  Uiso   1.00
C2544  C     1.32672   0.09056   0.72359   0.00000  Uiso   1.00
C2545  C     1.32327  -0.07474   0.81759   0.00000  Uiso   1.00
H2546  H     1.43798   0.04830   0.80494   0.00000  Uiso   1.00
H2547  H     1.46097  -0.00690   0.82938   0.00000  Uiso   1.00
H2548  H     1.38307  -0.12793   0.87595   0.00000  Uiso   1.00
H2549  H     1.24421   0.09861   0.67127   0.00000  Uiso   1.00
H2550  H     1.26808  -0.06756   0.78683   0.00000  Uiso   1.00
C2551  C     1.50122  -0.07101   0.86359   0.00000  Uiso   1.00
C2552  C     1.51301  -0.05663   0.90384   0.00000  Uiso   1.00
C2553  C     1.48455  -0.03191   0.92454   0.00000  Uiso   1.00
C2554  C     1.47707   0.00776   0.90844   0.00000  Uiso   1.00
O2555  O     1.49777   0.02271   0.88400   0.00000  Uiso   1.00
C2556  C     1.44660   0.03220   0.92971   0.00000  Uiso   1.00
C2557  C     1.43251   0.06756   0.90987   0.00000  Uiso   1.00
C2558  C     1.39514   0.08481   0.92885   0.00000  Uiso   1.00
H2559  H     1.39859   0.11614   0.92655   0.00000  Uiso   1.00
H2560  H     1.42849   0.06382   0.87854   0.00000  Uiso   1.00
H2561  H     1.45436   0.08969   0.91562   0.00000  Uiso   1.00
H2562  H     1.42245   0.01207   0.92655   0.00000  Uiso   1.00
H2563  H     1.45609  -0.04571   0.92109   0.00000  Uiso   1.00
H2564  H     1.54003  -0.04025   0.90326   0.00000  Uiso   1.00
H2565  H     1.51272  -0.04830   0.84462   0.00000  Uiso   1.00
H2566  H     1.51588  -0.09631   0.85209   0.00000  Uiso   1.00
C2567  C     1.35892   0.08998   0.99152   0.00000  Uiso   1.00
C2568  C     1.36007   0.09372   1.03148   0.00000  Uiso   1.00
C2569  C     1.39514   0.08768   1.05275   0.00000  Uiso   1.00
C2570  C     1.39457   0.07963   0.97255   0.00000  Uiso   1.00
C2571  C     1.36323   0.10723   1.11082   0.00000  Uiso   1.00
C2572  C     1.42475   0.06181   0.99296   0.00000  Uiso   1.00
C2573  C     1.39715   0.09228   1.09501   0.00000  Uiso   1.00
C2574  C     1.29050   0.10551   0.99238   0.00000  Uiso   1.00
C2575  C     1.32298   0.09487   0.97053   0.00000  Uiso   1.00
C2576  C     1.32068   0.08624   0.93057   0.00000  Uiso   1.00
C2577  C     1.25600   0.10809   0.97513   0.00000  Uiso   1.00
C2578  C     1.25399   0.10234   0.93546   0.00000  Uiso   1.00
C2579  C     1.28647   0.09429   0.91131   0.00000  Uiso   1.00
C2580  C     1.29366   0.11442   1.03177   0.00000  Uiso   1.00
H2581  H     1.22668   0.10206   0.92022   0.00000  Uiso   1.00
C2582  C     1.43108   0.08711   1.11341   0.00000  Uiso   1.00
C2583  C     1.46385   0.07704   1.09357   0.00000  Uiso   1.00
N2584  N     1.32931   0.11212   1.09185   0.00000  Uiso   1.00
C2585  C     1.42705   0.07158   1.03320   0.00000  Uiso   1.00
C2586  C     1.46270   0.06698   1.05362   0.00000  Uiso   1.00
C2587  C     1.32845   0.10608   1.05333   0.00000  Uiso   1.00
C2588  C     1.44258   0.09746   1.15625   0.00000  Uiso   1.00
C2589  C     1.48656   0.10234   1.15682   0.00000  Uiso   1.00
C2590  C     1.49777   0.14633   1.16085   0.00000  Uiso   1.00
H2591  H     1.48282   0.15898   1.18557   0.00000  Uiso   1.00
H2592  H     1.52939   0.14978   1.16113   0.00000  Uiso   1.00
H2593  H     1.49691   0.08768   1.18298   0.00000  Uiso   1.00
H2594  H     1.42849   0.12362   1.16688   0.00000  Uiso   1.00
H2595  H     1.43338   0.07302   1.17378   0.00000  Uiso   1.00
H2596  H     1.36122   0.11097   1.14187   0.00000  Uiso   1.00
H2597  H     1.26721   0.12419   1.04528   0.00000  Uiso   1.00
H2598  H     1.22984   0.11873   0.98864   0.00000  Uiso   1.00
H2599  H     1.48915   0.05750   1.03924   0.00000  Uiso   1.00
C2600  C     1.27871   0.08768   0.86905   0.00000  Uiso   1.00
C2601  C     1.27699   0.04398   0.85583   0.00000  Uiso   1.00
C2602  C     1.23731   0.02357   0.86244   0.00000  Uiso   1.00
H2603  H     1.21230   0.04025   0.85267   0.00000  Uiso   1.00
H2604  H     1.23674  -0.00287   0.84519   0.00000  Uiso   1.00
H2605  H     1.28072   0.04600   0.82449   0.00000  Uiso   1.00
H2606  H     1.29769   0.02444   0.86963   0.00000  Uiso   1.00
H2607  H     1.25255   0.10148   0.85784   0.00000  Uiso   1.00
O2608  O     1.48426   0.16559   1.12520   0.00000  Uiso   1.00
C2609  C     1.48340   0.20670   1.12778   0.00000  Uiso   1.00
C2610  C     1.46960   0.22021   1.08840   0.00000  Uiso   1.00
C2611  C     1.42935   0.20354   1.07805   0.00000  Uiso   1.00
C2612  C     1.39342   0.21475   1.10479   0.00000  Uiso   1.00
H2613  H     1.39198   0.24551   1.11140   0.00000  Uiso   1.00
H2614  H     1.39284   0.19865   1.13181   0.00000  Uiso   1.00
H2615  H     1.43280   0.17220   1.07920   0.00000  Uiso   1.00
H2616  H     1.46672   0.25183   1.08783   0.00000  Uiso   1.00
H2617  H     1.49087   0.21446   1.06569   0.00000  Uiso   1.00
H2618  H     1.46155   0.21389   1.14963   0.00000  Uiso   1.00
H2619  H     1.51128   0.21963   1.13497   0.00000  Uiso   1.00
C2620  C     1.28705   0.21619   0.95127   0.00000  Uiso   1.00
C2621  C     1.27469   0.21302   0.99008   0.00000  Uiso   1.00
C2622  C     1.32730   0.21963   0.94035   0.00000  Uiso   1.00
C2623  C     1.18988   0.23602   0.86790   0.00000  Uiso   1.00
C2624  C     1.16315   0.23343   0.83772   0.00000  Uiso   1.00
C2625  C     1.12951   0.21331   0.84519   0.00000  Uiso   1.00
C2626  C     1.30401   0.21331   1.01998   0.00000  Uiso   1.00
C2627  C     1.35432   0.21848   0.96910   0.00000  Uiso   1.00
C2628  C     1.34253   0.21389   1.00819   0.00000  Uiso   1.00
C2629  C     1.23674   0.20382   0.99957   0.00000  Uiso   1.00
C2630  C     1.29165   0.20699   1.05994   0.00000  Uiso   1.00
C2631  C     1.32097   0.20842   1.08754   0.00000  Uiso   1.00
C2632  C     1.36122   0.21072   1.07690   0.00000  Uiso   1.00
C2633  C     1.37128   0.21101   1.03809   0.00000  Uiso   1.00
H2634  H     1.25370   0.19146   0.86532   0.00000  Uiso   1.00
C2635  C     1.20972   0.20095   0.96795   0.00000  Uiso   1.00
C2636  C     1.21777   0.21417   0.93000   0.00000  Uiso   1.00
C2637  C     1.25169   0.20469   1.06856   0.00000  Uiso   1.00
C2638  C     1.22524   0.19721   1.03809   0.00000  Uiso   1.00
C2639  C     1.17321   0.18312   0.97600   0.00000  Uiso   1.00
C2640  C     1.16228   0.17335   1.01509   0.00000  Uiso   1.00
C2641  C     1.18844   0.18169   1.04499   0.00000  Uiso   1.00
C2642  C     1.18729   0.21504   0.90154   0.00000  Uiso   1.00
C2643  C     1.15078   0.19807   0.91045   0.00000  Uiso   1.00
C2644  C     1.14561   0.17795   0.94753   0.00000  Uiso   1.00
C2645  C     1.12462   0.15294   1.02487   0.00000  Uiso   1.00
H2646  H     1.10162   0.17220   1.03493   0.00000  Uiso   1.00
H2647  H     1.13008   0.13253   1.04844   0.00000  Uiso   1.00
C2648  C     1.25773   0.21590   0.92137   0.00000  Uiso   1.00
H2649  H     1.18154   0.17249   1.07431   0.00000  Uiso   1.00
H2650  H     1.38422   0.21331   0.96191   0.00000  Uiso   1.00
H2651  H     1.31350   0.21187   1.11772   0.00000  Uiso   1.00
C2652  C     1.23933   0.20296   1.11111   0.00000  Uiso   1.00
C2653  C     1.24508   0.16156   1.12893   0.00000  Uiso   1.00
H2654  H     1.24364   0.16300   1.16056   0.00000  Uiso   1.00
H2655  H     1.20914   0.21187   1.11399   0.00000  Uiso   1.00
C2656  C     1.11111   0.12735   0.99209   0.00000  Uiso   1.00
O2657  O     1.07489   0.11384   1.00417   0.00000  Uiso   1.00
C2658  C     1.05218   0.09257   0.97743   0.00000  Uiso   1.00
C2659  C     1.07230   0.05606   0.96076   0.00000  Uiso   1.00
C2660  C     1.04183   0.02702   0.94524   0.00000  Uiso   1.00
H2661  H     1.05879   0.00172   0.93632   0.00000  Uiso   1.00
H2662  H     1.03119   0.03479   0.91649   0.00000  Uiso   1.00
H2663  H     1.09070   0.06555   0.93690   0.00000  Uiso   1.00
H2664  H     1.08639   0.04082   0.98491   0.00000  Uiso   1.00
H2665  H     1.04154   0.11039   0.95328   0.00000  Uiso   1.00
H2666  H     1.02860   0.08222   0.99583   0.00000  Uiso   1.00
C2667  C     1.07633   0.28633   0.81759   0.00000  Uiso   1.00
C2668  C     1.04039   0.27397   0.83053   0.00000  Uiso   1.00
C2669  C     0.97858   0.24407   0.81242   0.00000  Uiso   1.00
C2670  C     0.96018   0.22682   0.78195   0.00000  Uiso   1.00
C2671  C     1.01423   0.25844   0.80408   0.00000  Uiso   1.00
C2672  C     1.02458   0.25528   0.76527   0.00000  Uiso   1.00
S2673  S     0.98807   0.23372   0.73796   0.00000  Uiso   1.00
C2674  C     0.96220   0.24810   0.84835   0.00000  Uiso   1.00
C2675  C     0.92511   0.23200   0.85382   0.00000  Uiso   1.00
C2676  C     0.90441   0.23717   0.89291   0.00000  Uiso   1.00
H2677  H     0.87308   0.23947   0.88975   0.00000  Uiso   1.00
H2678  H     0.91419   0.26448   0.90585   0.00000  Uiso   1.00
C2679  C     0.91505   0.20497   0.92224   0.00000  Uiso   1.00
C2680  C     0.90211   0.13253   0.96018   0.00000  Uiso   1.00
C2681  C     0.91074   0.09659   0.98606   0.00000  Uiso   1.00
C2682  C     0.84950  -0.02530   1.13210   0.00000  Uiso   1.00
C2683  C     0.86647  -0.05778   1.10594   0.00000  Uiso   1.00
C2684  C     1.04499  -0.06267   1.06943   0.00000  Uiso   1.00
C2685  C     1.07316  -0.05261   1.04212   0.00000  Uiso   1.00
C2686  C     1.02142  -0.01581   1.00359   0.00000  Uiso   1.00
C2687  C     1.05965  -0.03105   1.00906   0.00000  Uiso   1.00
C2688  C     1.01164   0.01092   0.97427   0.00000  Uiso   1.00
C2689  C     1.05362  -0.08596   1.10364   0.00000  Uiso   1.00
C2690  C     1.02228  -0.09889   1.12520   0.00000  Uiso   1.00
C2691  C     0.98577  -0.08394   1.11974   0.00000  Uiso   1.00
C2692  C     0.96162  -0.09832   1.14762   0.00000  Uiso   1.00
C2693  C     1.01825  -0.11902   1.15941   0.00000  Uiso   1.00
N2694  N     0.97916  -0.11988   1.17551   0.00000  Uiso   1.00
C2695  C     1.05103  -0.13828   1.17637   0.00000  Uiso   1.00
C2696  C     1.09127  -0.11729   1.16631   0.00000  Uiso   1.00
C2697  C     1.10450  -0.08624   1.19649   0.00000  Uiso   1.00
C2698  C     1.10852  -0.10091   1.23559   0.00000  Uiso   1.00
H2699  H     1.08438  -0.11815   1.24623   0.00000  Uiso   1.00
H2700  H     1.11859  -0.07733   1.25428   0.00000  Uiso   1.00
H2701  H     1.08236  -0.06353   1.19822   0.00000  Uiso   1.00
H2702  H     1.05247  -0.16731   1.16429   0.00000  Uiso   1.00
H2703  H     1.04902  -0.14230   1.20770   0.00000  Uiso   1.00
H2704  H     0.96708  -0.14144   1.19103   0.00000  Uiso   1.00
H2705  H     1.07949  -0.02357   0.98606   0.00000  Uiso   1.00
C2706  C     0.90930  -0.06670   1.11312   0.00000  Uiso   1.00
H2707  H     1.13181  -0.07331   1.18729   0.00000  Uiso   1.00
H2708  H     1.11255  -0.14029   1.17004   0.00000  Uiso   1.00
H2709  H     0.86014  -0.05031   1.07575   0.00000  Uiso   1.00
H2710  H     0.85123  -0.08509   1.11111   0.00000  Uiso   1.00
H2711  H     0.81788  -0.02472   1.13066   0.00000  Uiso   1.00
H2712  H     0.85985   0.00316   1.12290   0.00000  Uiso   1.00
H2713  H     0.88544   0.09458   1.00474   0.00000  Uiso   1.00
H2714  H     1.23300   0.01610   0.89291   0.00000  Uiso   1.00
C2715  C     0.92310   0.21331   0.78511   0.00000  Uiso   1.00
C2716  C     0.90499   0.21590   0.82248   0.00000  Uiso   1.00
C2717  C     1.31752   0.05635   0.74630   0.00000  Uiso   1.00
C2718  C     1.06253   0.26304   0.75176   0.00000  Uiso   1.00
C2719  C     1.08811   0.27828   0.77936   0.00000  Uiso   1.00
H2720  H     1.11600   0.28633   0.76815   0.00000  Uiso   1.00
H2721  H     1.06626   0.26074   0.72071   0.00000  Uiso   1.00
H2722  H     1.35317   0.10723   0.72129   0.00000  Uiso   1.00
C2723  C     0.97600  -0.06181   1.08898   0.00000  Uiso   1.00
C2724  C     1.00589  -0.05146   1.06138   0.00000  Uiso   1.00
C2725  C     0.99296  -0.02961   1.02889   0.00000  Uiso   1.00
C2726  C     0.95357  -0.01639   1.02659   0.00000  Uiso   1.00
C2727  C     0.97427   0.02415   0.97513   0.00000  Uiso   1.00
C2728  C     0.94495   0.00834   0.99727   0.00000  Uiso   1.00
C2729  C     0.92626  -0.02645   1.05390   0.00000  Uiso   1.00
C2730  C     0.93661  -0.05203   1.08553   0.00000  Uiso   1.00
H2731  H     0.89866  -0.01236   1.04959   0.00000  Uiso   1.00
C2732  C     1.11686  -0.06440   1.04499   0.00000  Uiso   1.00
C2733  C     1.14417  -0.05663   1.00992   0.00000  Uiso   1.00
C2734  C     1.18557  -0.07216   1.01596   0.00000  Uiso   1.00
H2735  H     1.19966  -0.07245   0.98749   0.00000  Uiso   1.00
H2736  H     1.19908  -0.05347   1.03752   0.00000  Uiso   1.00
H2737  H     1.18442  -0.10091   1.02860   0.00000  Uiso   1.00
H2738  H     1.13210  -0.07187   0.98491   0.00000  Uiso   1.00
H2739  H     1.11427  -0.09573   1.04729   0.00000  Uiso   1.00
H2740  H     0.74141   0.10522   0.62786   0.00000  Uiso   1.00
H2741  H     1.09472   0.30013   0.83887   0.00000  Uiso   1.00
H2742  H     1.26779   0.23832   0.85957   0.00000  Uiso   1.00
O2743  O     1.08294   0.18111   0.88774   0.00000  Uiso   1.00
C2744  C     1.04930   0.20009   0.87308   0.00000  Uiso   1.00
C2745  C     1.04959   0.24033   0.89464   0.00000  Uiso   1.00
C2746  C     1.03004   0.27426   0.87308   0.00000  Uiso   1.00
H2747  H     1.04327   0.29955   0.88688   0.00000  Uiso   1.00
H2748  H     1.08035   0.24752   0.89665   0.00000  Uiso   1.00
H2749  H     1.03895   0.23602   0.92396   0.00000  Uiso   1.00
H2750  H     1.04902   0.20267   0.84174   0.00000  Uiso   1.00
H2751  H     1.02228   0.18427   0.87825   0.00000  Uiso   1.00
H2752  H     0.70778   0.13138   0.59968   0.00000  Uiso   1.00
H2753  H     0.82248   0.12707   0.61406   0.00000  Uiso   1.00
C2754  C     1.18844   0.22452   0.67845   0.00000  Uiso   1.00
H2755  H     1.20770   0.24752   0.66925   0.00000  Uiso   1.00
H2756  H     1.31005   0.17968   0.74601   0.00000  Uiso   1.00
H2757  H     0.66350   0.22740   0.66408   0.00000  Uiso   1.00
H2758  H     0.93546   0.10349   1.00474   0.00000  Uiso   1.00
H2759  H     1.22380   0.14058   1.11859   0.00000  Uiso   1.00
H2760  H     1.25686   0.22107   1.13008   0.00000  Uiso   1.00
H2761  H     1.13095   0.10292   0.98836   0.00000  Uiso   1.00
H2762  H     1.51560  -0.08279   0.92137   0.00000  Uiso   1.00
H2763  H     1.14532  -0.02645   1.00101   0.00000  Uiso   1.00
H2764  H     1.13066  -0.05491   1.07173   0.00000  Uiso   1.00
C2765  C     0.90211   0.20239   0.74889   0.00000  Uiso   1.00
C2766  C     0.85928   0.20871   0.75320   0.00000  Uiso   1.00
C2767  C     0.84462   0.18744   0.78942   0.00000  Uiso   1.00
C2768  C     0.85985   0.20555   0.82679   0.00000  Uiso   1.00
H2769  H     0.91304   0.22193   0.72675   0.00000  Uiso   1.00
H2770  H     0.90815   0.17220   0.74170   0.00000  Uiso   1.00
H2771  H     0.85238   0.23947   0.75636   0.00000  Uiso   1.00
H2772  H     0.85669   0.15811   0.79000   0.00000  Uiso   1.00
H2773  H     0.84519   0.23257   0.83427   0.00000  Uiso   1.00
H2774  H     0.85669   0.18456   0.85008   0.00000  Uiso   1.00
C2775  C     0.88458   0.20152   0.95616   0.00000  Uiso   1.00
C2776  C     0.93029   0.13770   0.92454   0.00000  Uiso   1.00
C2777  C     0.89608   0.16904   0.98318   0.00000  Uiso   1.00
H2778  H     0.87451   0.12304   0.94782   0.00000  Uiso   1.00
H2779  H     0.85669   0.19836   0.94179   0.00000  Uiso   1.00
H2780  H     0.88515   0.22711   0.97485   0.00000  Uiso   1.00
H2781  H     0.93402   0.11298   0.90528   0.00000  Uiso   1.00
H2782  H     0.95990   0.14403   0.93316   0.00000  Uiso   1.00
H2783  H     0.87135   0.16645   1.00273   0.00000  Uiso   1.00
H2784  H     0.92195   0.17306   1.00072   0.00000  Uiso   1.00
H2785  H     0.94265   0.20986   0.93719   0.00000  Uiso   1.00
C2786  C     0.83226   0.19692   0.71870   0.00000  Uiso   1.00
C2787  C     0.80092   0.18629   0.78252   0.00000  Uiso   1.00
C2788  C     0.79833   0.17479   0.73911   0.00000  Uiso   1.00
H2789  H     0.82392   0.22193   0.70088   0.00000  Uiso   1.00
H2790  H     0.84749   0.17680   0.69944   0.00000  Uiso   1.00
H2791  H     0.78683   0.21389   0.78942   0.00000  Uiso   1.00
H2792  H     0.79000   0.16559   0.80351   0.00000  Uiso   1.00
H2793  H     0.80523   0.14403   0.73882   0.00000  Uiso   1.00
O2794  O     0.75377   0.11815   0.69656   0.00000  Uiso   1.00
H2795  H     0.74486   0.21877   0.63188   0.00000  Uiso   1.00
H2796  H     0.70289   0.20584   0.61521   0.00000  Uiso   1.00
C2797  C     0.92224  -0.09113   1.14417   0.00000  Uiso   1.00
H2798  H     0.90298  -0.09976   1.16746   0.00000  Uiso   1.00
O2799  O     0.91016   0.02587   0.99123   0.00000  Uiso   1.00
C2800  C     1.38968   0.10004   0.77792   0.00000  Uiso   1.00
H2801  H     1.36553   0.12045   0.77878   0.00000  Uiso   1.00
H2802  H     1.40607   0.10579   0.75147   0.00000  Uiso   1.00
C2803  C     1.31407  -0.11729   0.82737   0.00000  Uiso   1.00
H2804  H     1.33880  -0.13655   0.82277   0.00000  Uiso   1.00
H2805  H     1.28992  -0.12592   0.80868   0.00000  Uiso   1.00
H2806  H     1.30545  -0.12045   0.85784   0.00000  Uiso   1.00
C2807  C     0.91534   0.05778   0.96565   0.00000  Uiso   1.00
H2808  H     0.89234   0.05750   0.94409   0.00000  Uiso   1.00
O2809  O     0.91390   0.16846   0.90269   0.00000  Uiso   1.00
H2810  H     1.13353  -0.12017   1.23502   0.00000  Uiso   1.00
C2811  C     1.31321   0.20066   0.87480   0.00000  Uiso   1.00
C2812  C     1.33305   0.20267   0.83599   0.00000  Uiso   1.00
C2813  C     1.34225   0.22395   0.89924   0.00000  Uiso   1.00
C2814  C     1.38019   0.20842   0.88831   0.00000  Uiso   1.00
C2815  C     1.37732   0.20785   0.84490   0.00000  Uiso   1.00
H2816  H     1.31695   0.17076   0.88429   0.00000  Uiso   1.00
H2817  H     1.32270   0.18255   0.81386   0.00000  Uiso   1.00
H2818  H     1.32270   0.22941   0.82277   0.00000  Uiso   1.00
H2819  H     1.34081   0.25413   0.88946   0.00000  Uiso   1.00
H2820  H     1.38537   0.18054   0.90269   0.00000  Uiso   1.00
H2821  H     1.40463   0.22510   0.89953   0.00000  Uiso   1.00
H2822  H     1.38479   0.23688   0.83484   0.00000  Uiso   1.00
C2823  C     1.15538   0.29639   0.63447   0.00000  Uiso   1.00
H2824  H     1.14590   0.32284   0.64884   0.00000  Uiso   1.00
H2825  H     1.15538   0.30157   0.60342   0.00000  Uiso   1.00
H2826  H     1.18614   0.29639   0.64079   0.00000  Uiso   1.00
O2827  O     1.41469   0.11212   0.80983   0.00000  Uiso   1.00
C2828  C     1.40118   0.13885   0.83944   0.00000  Uiso   1.00
C2829  C     1.40607   0.18111   0.82593   0.00000  Uiso   1.00
H2830  H     1.37128   0.13253   0.84749   0.00000  Uiso   1.00
H2831  H     1.42015   0.13282   0.86417   0.00000  Uiso   1.00
H2832  H     1.43539   0.19175   0.83111   0.00000  Uiso   1.00
H2833  H     1.40175   0.17939   0.79488   0.00000  Uiso   1.00
H2834  H     1.27296   0.15006   1.11974   0.00000  Uiso   1.00
C2835  C     1.10824   0.15409   0.95731   0.00000  Uiso   1.00
H2836  H     1.09904   0.13655   0.93259   0.00000  Uiso   1.00
H2837  H     1.08438   0.17508   0.95760   0.00000  Uiso   1.00
C2838  C     1.35633   0.07072   0.91102   0.00000  Uiso   1.00
H2839  H     1.35604   0.03910   0.91045   0.00000  Uiso   1.00
H2840  H     1.35547   0.08078   0.88113   0.00000  Uiso   1.00
C2841  C     1.45695   0.03910   0.97197   0.00000  Uiso   1.00
H2842  H     1.48340   0.05663   0.97140   0.00000  Uiso   1.00
C2843  C     1.22984  -0.01322   0.75665   0.00000  Uiso   1.00
H2844  H     1.23243  -0.03852   0.73767   0.00000  Uiso   1.00
H2845  H     1.22093  -0.02300   0.78540   0.00000  Uiso   1.00
H2846  H     0.85525  -0.02932   1.16315   0.00000  Uiso   1.00
C2847  C     0.90528   0.22653   0.60342   0.00000  Uiso   1.00
H2848  H     0.88975   0.25212   0.61377   0.00000  Uiso   1.00
H2849  H     0.90269   0.22510   0.57180   0.00000  Uiso   1.00
C2850  C     1.41584   0.20986   1.03579   0.00000  Uiso   1.00
H2851  H     1.42504   0.18801   1.01509   0.00000  Uiso   1.00
H2852  H     1.42360   0.23890   1.02544   0.00000  Uiso   1.00
O2853  O     1.11772   0.12994   0.70174   0.00000  Uiso   1.00
C2854  C     0.94696   0.08251   0.64252   0.00000  Uiso   1.00
H2855  H     0.96536   0.05692   0.64108   0.00000  Uiso   1.00
H2856  H     0.92741   0.07934   0.61780   0.00000  Uiso   1.00
H2857  H     0.92914   0.07704   0.66810   0.00000  Uiso   1.00
C2858  C     1.50093   0.07992   1.11830   0.00000  Uiso   1.00
H2859  H     1.52278   0.09659   1.10277   0.00000  Uiso   1.00
H2860  H     1.51272   0.05117   1.12462   0.00000  Uiso   1.00
C2861  C     0.98376   0.27196   0.87911   0.00000  Uiso   1.00
H2862  H     0.97082   0.30070   0.88084   0.00000  Uiso   1.00
H2863  H     0.97801   0.25758   0.90671   0.00000  Uiso   1.00
C2864  C     1.46270  -0.00201   0.99209   0.00000  Uiso   1.00
C2865  C     1.48972  -0.02789   0.96795   0.00000  Uiso   1.00
H2866  H     1.43481  -0.01610   0.99698   0.00000  Uiso   1.00
H2867  H     1.47880  -0.00316   1.01912   0.00000  Uiso   1.00
H2868  H     1.48771  -0.05721   0.97945   0.00000  Uiso   1.00
H2869  H     1.51818  -0.01725   0.97715   0.00000  Uiso   1.00
C2870  C     1.09271  -0.09976   1.12175   0.00000  Uiso   1.00
H2871  H     1.10881  -0.12132   1.10479   0.00000  Uiso   1.00
H2872  H     1.10910  -0.07331   1.12721   0.00000  Uiso   1.00
C2873  C     0.95788   0.05491   0.94926   0.00000  Uiso   1.00
H2874  H     0.97513   0.08107   0.95271   0.00000  Uiso   1.00
H2875  H     0.95645   0.04887   0.91821   0.00000  Uiso   1.00
H2876  H     1.30372   0.09861   0.85295   0.00000  Uiso   1.00
O2877  O     1.37329   0.19146   0.69800   0.00000  Uiso   1.00
O2878  O     1.32643   0.20785   0.66063   0.00000  Uiso   1.00
H2879  H     1.37646   0.18715   0.67040   0.00000  Uiso   1.00
C2880  C     1.25370   0.05433   0.71353   0.00000  Uiso   1.00
H2881  H     1.30401   0.12965   0.67960   0.00000  Uiso   1.00
C2882  C     1.27239   0.21331   0.87854   0.00000  Uiso   1.00
C2883  C     1.12117   0.19664   0.88141   0.00000  Uiso   1.00
H2884  H     1.10910   0.21302   0.82133   0.00000  Uiso   1.00
H2885  H     1.17004   0.24637   0.81012   0.00000  Uiso   1.00
H2886  H     1.21317   0.25672   0.86647   0.00000  Uiso   1.00
C2887  C     0.29495   0.70921   0.16674   0.00000  Uiso   1.00
C2888  C     0.30099   0.71353   0.12649   0.00000  Uiso   1.00
C2889  C     0.26304   0.77246   0.12707   0.00000  Uiso   1.00
C2890  C     0.28662   0.74716   0.10637   0.00000  Uiso   1.00
C2891  C     0.29352   0.75147   0.06756   0.00000  Uiso   1.00
C2892  C     0.25298   0.80811   0.10867   0.00000  Uiso   1.00
C2893  C     0.31910   0.68478   0.10551   0.00000  Uiso   1.00
C2894  C     0.32687   0.68995   0.06727   0.00000  Uiso   1.00
C2895  C     0.25672   0.81184   0.06871   0.00000  Uiso   1.00
C2896  C     0.27742   0.78425   0.04887   0.00000  Uiso   1.00
C2897  C     0.31422   0.72330   0.04743   0.00000  Uiso   1.00
C2898  C     0.32169   0.72876   0.00920   0.00000  Uiso   1.00
C2899  C     0.28662   0.79000   0.01035   0.00000  Uiso   1.00
C2900  C     0.30789   0.76269  -0.01064   0.00000  Uiso   1.00
C2901  C     0.27109   0.73537   0.18571   0.00000  Uiso   1.00
C2902  C     0.34814   0.65718   0.05606   0.00000  Uiso   1.00
C2903  C     0.33750   0.65057   0.11844   0.00000  Uiso   1.00
N2904  N     0.35590   0.63159   0.08739   0.00000  Uiso   1.00
H2905  H     0.38034   0.61607   0.08797   0.00000  Uiso   1.00
C2906  C     0.25385   0.76613   0.16645   0.00000  Uiso   1.00
H2907  H     0.27972   0.81731  -0.00374   0.00000  Uiso   1.00
H2908  H     0.24723   0.83858   0.05520   0.00000  Uiso   1.00
H2909  H     0.33635   0.70720  -0.00862   0.00000  Uiso   1.00
H2910  H     0.30645   0.68305   0.17996   0.00000  Uiso   1.00
H2911  H     0.37200   0.65660   0.03594   0.00000  Uiso   1.00
H2912  H     0.33750   0.63849   0.14748   0.00000  Uiso   1.00
H2913  H     0.26621   0.72790   0.21590   0.00000  Uiso   1.00
C2914  C     0.22280   0.78942   0.18514   0.00000  Uiso   1.00
C2915  C     0.20152   0.81961   0.16070   0.00000  Uiso   1.00
C2916  C     0.22998   0.83800   0.13368   0.00000  Uiso   1.00
C2917  C     0.31652   0.77016  -0.05347   0.00000  Uiso   1.00
C2918  C     0.35561   0.78137  -0.06411   0.00000  Uiso   1.00
C2919  C     0.37430   0.81616  -0.04053   0.00000  Uiso   1.00
H2920  H     0.37430   0.75636  -0.05836   0.00000  Uiso   1.00
H2921  H     0.29697   0.79345  -0.06210   0.00000  Uiso   1.00
H2922  H     0.30358   0.74630  -0.06957   0.00000  Uiso   1.00
H2923  H     0.25097   0.85554   0.14949   0.00000  Uiso   1.00
H2924  H     0.17766   0.80552   0.14489   0.00000  Uiso   1.00
H2925  H     0.19002   0.84059   0.18140   0.00000  Uiso   1.00
H2926  H     0.23688   0.80523   0.20871   0.00000  Uiso   1.00
H2927  H     0.20296   0.76700   0.19520   0.00000  Uiso   1.00
C2928  C     0.38235   0.86848   0.22912   0.00000  Uiso   1.00
C2929  C     0.34239   0.87451   0.24033   0.00000  Uiso   1.00
C2930  C     0.33233   0.87250   0.27914   0.00000  Uiso   1.00
C2931  C     0.31508   0.88946   0.21187   0.00000  Uiso   1.00
C2932  C     0.32773   0.89320   0.17220   0.00000  Uiso   1.00
C2933  C     0.36539   0.88285   0.16156   0.00000  Uiso   1.00
C2934  C     0.39442   0.87336   0.18945   0.00000  Uiso   1.00
C2935  C     0.29467   0.88285   0.29208   0.00000  Uiso   1.00
C2936  C     0.27943   0.90211   0.22423   0.00000  Uiso   1.00
C2937  C     0.26851   0.89953   0.26592   0.00000  Uiso   1.00
C2938  C     0.21044   0.93431   0.24867   0.00000  Uiso   1.00
C2939  C     0.25385   0.92109   0.19635   0.00000  Uiso   1.00
C2940  C     0.35763   0.85583   0.30530   0.00000  Uiso   1.00
C2941  C     0.28633   0.88314   0.33060   0.00000  Uiso   1.00
C2942  C     0.24982   0.89579   0.34325   0.00000  Uiso   1.00
C2943  C     0.22251   0.91332   0.31882   0.00000  Uiso   1.00
C2944  C     0.23372   0.91562   0.27857   0.00000  Uiso   1.00
H2945  H     0.18485   0.95041   0.25672   0.00000  Uiso   1.00
C2946  C     0.29898   0.90700   0.14460   0.00000  Uiso   1.00
C2947  C     0.26333   0.92051   0.15754   0.00000  Uiso   1.00
C2948  C     0.39615   0.84692   0.29495   0.00000  Uiso   1.00
N2949  N     0.22193   0.93661   0.20986   0.00000  Uiso   1.00
C2950  C     0.40822   0.85123   0.25614   0.00000  Uiso   1.00
H2951  H     0.43582   0.83915   0.24723   0.00000  Uiso   1.00
C2952  C     0.23085   0.93316   0.12937   0.00000  Uiso   1.00
C2953  C     0.19721   0.90010   0.12649   0.00000  Uiso   1.00
H2954  H     0.17651   0.91447   0.10752   0.00000  Uiso   1.00
H2955  H     0.18140   0.89694   0.15380   0.00000  Uiso   1.00
H2956  H     0.21935   0.96047   0.14058   0.00000  Uiso   1.00
H2957  H     0.24206   0.94035   0.10062   0.00000  Uiso   1.00
O2958  O     0.21015   0.86445   0.11039   0.00000  Uiso   1.00
C2959  C     0.31479   0.86905   0.35791   0.00000  Uiso   1.00
C2960  C     0.30530   0.86417   0.39644   0.00000  Uiso   1.00
C2961  C     0.26764   0.87250   0.40966   0.00000  Uiso   1.00
C2962  C     0.25672   0.86819   0.45106   0.00000  Uiso   1.00
C2963  C     0.26419   0.90355   0.47635   0.00000  Uiso   1.00
C2964  C     0.25844   0.89291   0.52149   0.00000  Uiso   1.00
C2965  C     0.26276   0.92770   0.54909   0.00000  Uiso   1.00
H2966  H     0.22998   0.87998   0.52724   0.00000  Uiso   1.00
H2967  H     0.29438   0.91217   0.47262   0.00000  Uiso   1.00
H2968  H     0.24407   0.92684   0.46974   0.00000  Uiso   1.00
H2969  H     0.27426   0.84548   0.46399   0.00000  Uiso   1.00
H2970  H     0.22653   0.85899   0.44933   0.00000  Uiso   1.00
H2971  H     0.32572   0.85094   0.41627   0.00000  Uiso   1.00
C2972  C     0.42633   0.83513   0.32370   0.00000  Uiso   1.00
C2973  C     0.45594   0.86762   0.33520   0.00000  Uiso   1.00
C2974  C     0.45221   0.90700   0.31422   0.00000  Uiso   1.00
O2975  O     0.41685   0.92597   0.32140   0.00000  Uiso   1.00
C2976  C     0.40448   0.93402   0.35878   0.00000  Uiso   1.00
C2977  C     0.36654   0.95587   0.35763   0.00000  Uiso   1.00
C2978  C     0.38292   0.97801   0.42576   0.00000  Uiso   1.00
H2979  H     0.34469   0.93517   0.34814   0.00000  Uiso   1.00
H2980  H     0.36855   0.98031   0.33779   0.00000  Uiso   1.00
H2981  H     0.40017   0.90671   0.37401   0.00000  Uiso   1.00
H2982  H     0.45738   0.90758   0.28317   0.00000  Uiso   1.00
H2983  H     0.47492   0.92281   0.33003   0.00000  Uiso   1.00
H2984  H     0.45221   0.87049   0.36654   0.00000  Uiso   1.00
H2985  H     0.48584   0.85755   0.33348   0.00000  Uiso   1.00
H2986  H     0.44099   0.80897   0.31364   0.00000  Uiso   1.00
H2987  H     0.41052   0.82593   0.34958   0.00000  Uiso   1.00
C2988  C     0.37746   0.88199   0.11902   0.00000  Uiso   1.00
C2989  C     0.34268   0.87394   0.09314   0.00000  Uiso   1.00
C2990  C     0.34843   0.86733   0.04772   0.00000  Uiso   1.00
H2991  H     0.32025   0.86273   0.03421   0.00000  Uiso   1.00
H2992  H     0.36366   0.84002   0.04312   0.00000  Uiso   1.00
H2993  H     0.33434   0.84634   0.10637   0.00000  Uiso   1.00
H2994  H     0.40075   0.86302   0.10924   0.00000  Uiso   1.00
H2995  H     0.38724   0.91074   0.11068   0.00000  Uiso   1.00
C2996  C     0.41598   0.87854  -0.04255   0.00000  Uiso   1.00
C2997  C     0.36884   0.90096   0.02329   0.00000  Uiso   1.00
S2998  S     0.41915   0.88688   0.01006   0.00000  Uiso   1.00
H2999  H     0.36941   0.92626   0.04226   0.00000  Uiso   1.00
C3000  C     0.41282   0.83513  -0.05318   0.00000  Uiso   1.00
C3001  C     0.44991   0.81156  -0.04801   0.00000  Uiso   1.00
C3002  C     0.45508   0.77361  -0.02875   0.00000  Uiso   1.00
H3003  H     0.47089   0.75435  -0.04801   0.00000  Uiso   1.00
H3004  H     0.42720   0.75866  -0.02932   0.00000  Uiso   1.00
H3005  H     0.40995   0.83599  -0.08481   0.00000  Uiso   1.00
C3006  C     0.50050   1.01164   0.50769   0.00000  Uiso   1.00
C3007  C     0.43525   0.99928   0.48555   0.00000  Uiso   1.00
C3008  C     0.46054   1.01049   0.51344   0.00000  Uiso   1.00
C3009  C     0.44531   1.02400   0.54966   0.00000  Uiso   1.00
C3010  C     0.39471   0.99698   0.49360   0.00000  Uiso   1.00
C3011  C     0.52350   1.02228   0.54018   0.00000  Uiso   1.00
C3012  C     0.50884   1.02717   0.57640   0.00000  Uiso   1.00
C3013  C     0.38264   1.00762   0.53098   0.00000  Uiso   1.00
C3014  C     0.40707   1.02458   0.55685   0.00000  Uiso   1.00
C3015  C     0.47032   1.03090   0.58215   0.00000  Uiso   1.00
C3016  C     0.48958   0.98261   0.44387   0.00000  Uiso   1.00
C3017  C     0.53874   1.03550   0.60055   0.00000  Uiso   1.00
C3018  C     0.56174   1.02429   0.54420   0.00000  Uiso   1.00
N3019  N     0.57410   1.03177   0.58358   0.00000  Uiso   1.00
H3020  H     0.59336   1.01596   0.59853   0.00000  Uiso   1.00
C3021  C     0.44962   0.98232   0.45019   0.00000  Uiso   1.00
C3022  C     0.42346   0.97111   0.42001   0.00000  Uiso   1.00
C3023  C     0.31623   0.98232   0.40075   0.00000  Uiso   1.00
C3024  C     0.30617   1.00187   0.43582   0.00000  Uiso   1.00
C3025  C     0.33031   1.00446   0.46658   0.00000  Uiso   1.00
C3026  C     0.51459   1.00014   0.47118   0.00000  Uiso   1.00
H3027  H     0.39557   1.02889   0.58588   0.00000  Uiso   1.00
H3028  H     0.45738   1.03665   0.61032   0.00000  Uiso   1.00
H3029  H     0.58358   1.00647   0.53011   0.00000  Uiso   1.00
H3030  H     0.29610   0.97571   0.37746   0.00000  Uiso   1.00
H3031  H     0.50252   0.97111   0.41771   0.00000  Uiso   1.00
C3032  C     0.53644   1.03349   0.64539   0.00000  Uiso   1.00
C3033  C     0.53500   0.99181   0.65948   0.00000  Uiso   1.00
C3034  C     0.57266   0.96996   0.66005   0.00000  Uiso   1.00
C3035  C     0.57899   0.94179   0.62872   0.00000  Uiso   1.00
O3036  O     0.60658   0.94466   0.60860   0.00000  Uiso   1.00
C3037  C     0.55714   0.90298   0.62814   0.00000  Uiso   1.00
C3038  C     0.53213   0.89838   0.59221   0.00000  Uiso   1.00
C3039  C     0.51545   0.85583   0.58991   0.00000  Uiso   1.00
H3040  H     0.48584   0.86072   0.57985   0.00000  Uiso   1.00
H3041  H     0.54765   0.90729   0.56605   0.00000  Uiso   1.00
H3042  H     0.50884   0.91936   0.58933   0.00000  Uiso   1.00
H3043  H     0.57985   0.88113   0.62786   0.00000  Uiso   1.00
H3044  H     0.59652   0.99066   0.66063   0.00000  Uiso   1.00
H3045  H     0.51804   0.97398   0.63964   0.00000  Uiso   1.00
H3046  H     0.50913   1.04815   0.65143   0.00000  Uiso   1.00
H3047  H     0.55800   1.05017   0.66149   0.00000  Uiso   1.00
C3048  C     0.51574   0.79201   0.62814   0.00000  Uiso   1.00
C3049  C     0.51143   0.76958   0.66149   0.00000  Uiso   1.00
C3050  C     0.50683   0.78856   0.69743   0.00000  Uiso   1.00
C3051  C     0.51775   0.83427   0.62958   0.00000  Uiso   1.00
C3052  C     0.49648   0.72416   0.72560   0.00000  Uiso   1.00
C3053  C     0.51775   0.85267   0.66552   0.00000  Uiso   1.00
C3054  C     0.49878   0.76498   0.73077   0.00000  Uiso   1.00
C3055  C     0.51401   0.73221   0.59020   0.00000  Uiso   1.00
C3056  C     0.51804   0.77246   0.59048   0.00000  Uiso   1.00
C3057  C     0.52465   0.79172   0.55484   0.00000  Uiso   1.00
C3058  C     0.51660   0.71238   0.55484   0.00000  Uiso   1.00
C3059  C     0.52034   0.73106   0.51948   0.00000  Uiso   1.00
C3060  C     0.52551   0.76958   0.51746   0.00000  Uiso   1.00
C3061  C     0.51114   0.71094   0.62326   0.00000  Uiso   1.00
H3062  H     0.51574   0.71640   0.49217   0.00000  Uiso   1.00
C3063  C     0.48757   0.78396   0.76383   0.00000  Uiso   1.00
C3064  C     0.48843   0.82363   0.76930   0.00000  Uiso   1.00
N3065  N     0.50395   0.70634   0.69254   0.00000  Uiso   1.00
C3066  C     0.50740   0.83024   0.69858   0.00000  Uiso   1.00
C3067  C     0.49792   0.84720   0.73537   0.00000  Uiso   1.00
C3068  C     0.50884   0.72819   0.65977   0.00000  Uiso   1.00
C3069  C     0.47549   0.76585   0.80264   0.00000  Uiso   1.00
C3070  C     0.45537   0.79977   0.82564   0.00000  Uiso   1.00
C3071  C     0.41110   0.79632   0.82277   0.00000  Uiso   1.00
H3072  H     0.40132   0.76613   0.82449   0.00000  Uiso   1.00
H3073  H     0.39730   0.81328   0.84519   0.00000  Uiso   1.00
H3074  H     0.46256   0.80264   0.85612   0.00000  Uiso   1.00
H3075  H     0.45623   0.74112   0.79891   0.00000  Uiso   1.00
H3076  H     0.49878   0.75205   0.81932   0.00000  Uiso   1.00
H3077  H     0.49418   0.70461   0.75032   0.00000  Uiso   1.00
H3078  H     0.50913   0.67989   0.62067   0.00000  Uiso   1.00
H3079  H     0.51056   0.68190   0.55167   0.00000  Uiso   1.00
H3080  H     0.49102   0.87768   0.73624   0.00000  Uiso   1.00
C3081  C     0.52293   0.79057   0.47722   0.00000  Uiso   1.00
C3082  C     0.51488   0.76728   0.44013   0.00000  Uiso   1.00
C3083  C     0.50999   0.79143   0.40276   0.00000  Uiso   1.00
H3084  H     0.50597   0.77275   0.37746   0.00000  Uiso   1.00
H3085  H     0.48239   0.80696   0.40333   0.00000  Uiso   1.00
H3086  H     0.53730   0.74544   0.43640   0.00000  Uiso   1.00
H3087  H     0.48670   0.75349   0.44444   0.00000  Uiso   1.00
H3088  H     0.49820   0.80983   0.48067   0.00000  Uiso   1.00
O3089  O     0.39701   0.80983   0.78511   0.00000  Uiso   1.00
C3090  C     0.35993   0.79718   0.77102   0.00000  Uiso   1.00
C3091  C     0.36136   0.75349   0.75636   0.00000  Uiso   1.00
C3092  C     0.38867   0.74572   0.72273   0.00000  Uiso   1.00
C3093  C     0.39557   0.70030   0.71525   0.00000  Uiso   1.00
H3094  H     0.37142   0.68305   0.72618   0.00000  Uiso   1.00
H3095  H     0.42231   0.69082   0.72905   0.00000  Uiso   1.00
H3096  H     0.41541   0.76039   0.73077   0.00000  Uiso   1.00
H3097  H     0.36625   0.73192   0.77907   0.00000  Uiso   1.00
H3098  H     0.33290   0.74400   0.74630   0.00000  Uiso   1.00
H3099  H     0.33721   0.80006   0.79287   0.00000  Uiso   1.00
H3100  H     0.35216   0.81673   0.74745   0.00000  Uiso   1.00
C3101  C     0.39787   0.75291   0.53414   0.00000  Uiso   1.00
C3102  C     0.40765   0.71784   0.55052   0.00000  Uiso   1.00
C3103  C     0.38264   0.78252   0.56001   0.00000  Uiso   1.00
C3104  C     0.38695   0.75492   0.41081   0.00000  Uiso   1.00
C3105  C     0.38062   0.75866   0.37142   0.00000  Uiso   1.00
C3106  C     0.40276   0.73394   0.34785   0.00000  Uiso   1.00
C3107  C     0.40190   0.70950   0.59135   0.00000  Uiso   1.00
C3108  C     0.37775   0.77447   0.59940   0.00000  Uiso   1.00
C3109  C     0.38724   0.73940   0.61463   0.00000  Uiso   1.00
C3110  C     0.42576   0.69024   0.52753   0.00000  Uiso   1.00
C3111  C     0.40995   0.67184   0.60716   0.00000  Uiso   1.00
C3112  C     0.40563   0.66695   0.64683   0.00000  Uiso   1.00
C3113  C     0.39672   0.69743   0.67069   0.00000  Uiso   1.00
C3114  C     0.38379   0.73336   0.65431   0.00000  Uiso   1.00
H3115  H     0.43697   0.80581   0.46572   0.00000  Uiso   1.00
C3116  C     0.43093   0.69714   0.48728   0.00000  Uiso   1.00
C3117  C     0.41713   0.73049   0.46974   0.00000  Uiso   1.00
C3118  C     0.42633   0.64223   0.58301   0.00000  Uiso   1.00
C3119  C     0.43611   0.65373   0.54391   0.00000  Uiso   1.00
C3120  C     0.45106   0.66868   0.46371   0.00000  Uiso   1.00
C3121  C     0.46313   0.63246   0.48009   0.00000  Uiso   1.00
C3122  C     0.45508   0.62699   0.51833   0.00000  Uiso   1.00
C3123  C     0.41713   0.73221   0.42835   0.00000  Uiso   1.00
C3124  C     0.43726   0.70663   0.40448   0.00000  Uiso   1.00
C3125  C     0.45882   0.67644   0.42288   0.00000  Uiso   1.00
C3126  C     0.48354   0.60112   0.45508   0.00000  Uiso   1.00
H3127  H     0.46284   0.58157   0.44128   0.00000  Uiso   1.00
H3128  H     0.50165   0.58301   0.47348   0.00000  Uiso   1.00
C3129  C     0.40765   0.76182   0.49504   0.00000  Uiso   1.00
H3130  H     0.46543   0.59853   0.52724   0.00000  Uiso   1.00
H3131  H     0.36625   0.79776   0.61693   0.00000  Uiso   1.00
H3132  H     0.41340   0.64079   0.66207   0.00000  Uiso   1.00
C3133  C     0.43984   0.60227   0.60112   0.00000  Uiso   1.00
C3134  C     0.48325   0.60055   0.61061   0.00000  Uiso   1.00
H3135  H     0.50165   0.61377   0.58847   0.00000  Uiso   1.00
H3136  H     0.43410   0.57812   0.58157   0.00000  Uiso   1.00
C3137  C     0.51315   0.61923   0.42748   0.00000  Uiso   1.00
O3138  O     0.53241   0.58732   0.40678   0.00000  Uiso   1.00
C3139  C     0.55972   0.59710   0.37631   0.00000  Uiso   1.00
C3140  C     0.59537   0.61693   0.39212   0.00000  Uiso   1.00
C3141  C     0.63016   0.62412   0.36395   0.00000  Uiso   1.00
H3142  H     0.63706   0.59853   0.34641   0.00000  Uiso   1.00
H3143  H     0.65747   0.62814   0.37919   0.00000  Uiso   1.00
H3144  H     0.58330   0.64252   0.40678   0.00000  Uiso   1.00
H3145  H     0.60831   0.60026   0.41541   0.00000  Uiso   1.00
H3146  H     0.54190   0.61205   0.35475   0.00000  Uiso   1.00
H3147  H     0.57036   0.57007   0.36424   0.00000  Uiso   1.00
C3148  C     0.33664   0.71381   0.29007   0.00000  Uiso   1.00
C3149  C     0.35734   0.69915   0.26046   0.00000  Uiso   1.00
C3150  C     0.38091   0.71180   0.19290   0.00000  Uiso   1.00
C3151  C     0.38321   0.74141   0.16588   0.00000  Uiso   1.00
C3152  C     0.36223   0.72301   0.22826   0.00000  Uiso   1.00
C3153  C     0.34871   0.75952   0.22510   0.00000  Uiso   1.00
S3154  S     0.36424   0.78683   0.18427   0.00000  Uiso   1.00
C3155  C     0.39845   0.67644   0.18859   0.00000  Uiso   1.00
C3156  C     0.41570   0.66839   0.15294   0.00000  Uiso   1.00
C3157  C     0.42748   0.62527   0.14920   0.00000  Uiso   1.00
H3158  H     0.43007   0.61780   0.11873   0.00000  Uiso   1.00
H3159  H     0.40592   0.60457   0.15955   0.00000  Uiso   1.00
C3160  C     0.46744   0.61636   0.16904   0.00000  Uiso   1.00
C3161  C     0.54707   0.59307   0.17594   0.00000  Uiso   1.00
C3162  C     0.58358   0.59393   0.20555   0.00000  Uiso   1.00
C3163  C     0.47664   0.76355   0.21848   0.00000  Uiso   1.00
C3164  C     0.51401   0.78798   0.20900   0.00000  Uiso   1.00
C3165  C     0.61578   0.78080   0.36424   0.00000  Uiso   1.00
C3166  C     0.63591   0.75349   0.38781   0.00000  Uiso   1.00
C3167  C     0.61463   0.69886   0.34699   0.00000  Uiso   1.00
C3168  C     0.63159   0.71468   0.38034   0.00000  Uiso   1.00
C3169  C     0.61866   0.65775   0.33549   0.00000  Uiso   1.00
C3170  C     0.60888   0.82162   0.37229   0.00000  Uiso   1.00
C3171  C     0.58732   0.84289   0.34440   0.00000  Uiso   1.00
C3172  C     0.57151   0.82651   0.31364   0.00000  Uiso   1.00
C3173  C     0.55139   0.85353   0.29409   0.00000  Uiso   1.00
C3174  C     0.57927   0.88026   0.34469   0.00000  Uiso   1.00
N3175  N     0.55771   0.89004   0.31019   0.00000  Uiso   1.00
C3176  C     0.58617   0.90556   0.37775   0.00000  Uiso   1.00
C3177  C     0.59537   0.88084   0.41570   0.00000  Uiso   1.00
C3178  C     0.61003   0.90585   0.45048   0.00000  Uiso   1.00
C3179  C     0.58301   0.90240   0.48527   0.00000  Uiso   1.00
H3180  H     0.58014   0.87193   0.49303   0.00000  Uiso   1.00
H3181  H     0.55397   0.91332   0.47894   0.00000  Uiso   1.00
H3182  H     0.61780   0.93517   0.44157   0.00000  Uiso   1.00
H3183  H     0.56432   0.92799   0.38264   0.00000  Uiso   1.00
H3184  H     0.61291   0.91994   0.36855   0.00000  Uiso   1.00
H3185  H     0.56231   0.91390   0.29409   0.00000  Uiso   1.00
H3186  H     0.64338   0.69369   0.40046   0.00000  Uiso   1.00
C3187  C     0.53328   0.80207   0.24608   0.00000  Uiso   1.00
H3188  H     0.63878   0.89751   0.46054   0.00000  Uiso   1.00
H3189  H     0.56777   0.86762   0.42317   0.00000  Uiso   1.00
H3190  H     0.50338   0.81271   0.19232   0.00000  Uiso   1.00
H3191  H     0.53385   0.77217   0.19002   0.00000  Uiso   1.00
H3192  H     0.45824   0.75435   0.19434   0.00000  Uiso   1.00
H3193  H     0.45796   0.77907   0.23918   0.00000  Uiso   1.00
H3194  H     0.60860   0.60946   0.19376   0.00000  Uiso   1.00
H3195  H     0.53356   0.81242   0.40046   0.00000  Uiso   1.00
C3196  C     0.40420   0.73595   0.13109   0.00000  Uiso   1.00
C3197  C     0.42231   0.69800   0.12678   0.00000  Uiso   1.00
C3198  C     0.36912   0.99324   0.46198   0.00000  Uiso   1.00
C3199  C     0.32399   0.77533   0.25499   0.00000  Uiso   1.00
C3200  C     0.31968   0.75176   0.28777   0.00000  Uiso   1.00
H3201  H     0.30415   0.76240   0.31278   0.00000  Uiso   1.00
H3202  H     0.31048   0.80351   0.25183   0.00000  Uiso   1.00
H3203  H     0.32284   1.01969   0.49274   0.00000  Uiso   1.00
C3204  C     0.57467   0.78827   0.30473   0.00000  Uiso   1.00
C3205  C     0.59508   0.76498   0.33089   0.00000  Uiso   1.00
C3206  C     0.59767   0.72416   0.32054   0.00000  Uiso   1.00
C3207  C     0.58129   0.71238   0.28489   0.00000  Uiso   1.00
C3208  C     0.60687   0.64827   0.29668   0.00000  Uiso   1.00
C3209  C     0.58646   0.67357   0.27426   0.00000  Uiso   1.00
C3210  C     0.55944   0.73652   0.26161   0.00000  Uiso   1.00
C3211  C     0.55541   0.77476   0.26937   0.00000  Uiso   1.00
H3212  H     0.54478   0.72503   0.23631   0.00000  Uiso   1.00
C3213  C     0.65402   0.76326   0.42518   0.00000  Uiso   1.00
C3214  C     0.62239   0.76096   0.45709   0.00000  Uiso   1.00
C3215  C     0.63591   0.77160   0.49677   0.00000  Uiso   1.00
H3216  H     0.65833   0.75349   0.50999   0.00000  Uiso   1.00
H3217  H     0.64482   0.80207   0.49590   0.00000  Uiso   1.00
H3218  H     0.61032   0.76930   0.51516   0.00000  Uiso   1.00
H3219  H     0.59393   0.77275   0.44991   0.00000  Uiso   1.00
H3220  H     0.67040   0.79028   0.42662   0.00000  Uiso   1.00
H3221  H     0.44128   0.89320  -0.05462   0.00000  Uiso   1.00
H3222  H     0.33290   0.69800   0.31680   0.00000  Uiso   1.00
H3223  H     0.38407   0.81012   0.46313   0.00000  Uiso   1.00
O3224  O     0.44588   0.68075   0.33894   0.00000  Uiso   1.00
C3225  C     0.43611   0.67558   0.29869   0.00000  Uiso   1.00
C3226  C     0.40161   0.64827   0.29582   0.00000  Uiso   1.00
C3227  C     0.37286   0.65775   0.25988   0.00000  Uiso   1.00
H3228  H     0.34699   0.64108   0.26707   0.00000  Uiso   1.00
H3229  H     0.38724   0.64913   0.32399   0.00000  Uiso   1.00
H3230  H     0.41167   0.61837   0.29754   0.00000  Uiso   1.00
H3231  H     0.43410   0.70174   0.28116   0.00000  Uiso   1.00
H3232  H     0.45968   0.66063   0.28374   0.00000  Uiso   1.00
H3233  H     0.39069   0.89550  -0.05088   0.00000  Uiso   1.00
H3234  H     0.35245   0.91246  -0.00115   0.00000  Uiso   1.00
C3235  C     0.24177   0.89090   0.38551   0.00000  Uiso   1.00
H3236  H     0.21417   0.89838   0.39816   0.00000  Uiso   1.00
H3237  H     0.28202   0.87394   0.53098   0.00000  Uiso   1.00
H3238  H     0.35619   0.78597  -0.09516   0.00000  Uiso   1.00
H3239  H     0.58933   0.56375   0.21331   0.00000  Uiso   1.00
H3240  H     0.48785   0.61607   0.63763   0.00000  Uiso   1.00
H3241  H     0.42518   0.59451   0.62786   0.00000  Uiso   1.00
H3242  H     0.53471   0.63504   0.44416   0.00000  Uiso   1.00
H3243  H     0.51861   0.99094   0.68650   0.00000  Uiso   1.00
H3244  H     0.61435   0.73049   0.45623   0.00000  Uiso   1.00
H3245  H     0.67472   0.74055   0.43208   0.00000  Uiso   1.00
C3246  C     0.40678   0.76958   0.10206   0.00000  Uiso   1.00
C3247  C     0.42547   0.75981   0.06382   0.00000  Uiso   1.00
C3248  C     0.45767   0.73135   0.07043   0.00000  Uiso   1.00
C3249  C     0.44272   0.68995   0.08711   0.00000  Uiso   1.00
H3250  H     0.37717   0.77936   0.09631   0.00000  Uiso   1.00
H3251  H     0.42317   0.79316   0.11499   0.00000  Uiso   1.00
H3252  H     0.40506   0.74429   0.04571   0.00000  Uiso   1.00
H3253  H     0.47980   0.74141   0.09056   0.00000  Uiso   1.00
H3254  H     0.42346   0.67500   0.06727   0.00000  Uiso   1.00
H3255  H     0.46773   0.67184   0.09458   0.00000  Uiso   1.00
C3256  C     0.47405   0.57151   0.17306   0.00000  Uiso   1.00
C3257  C     0.53385   0.63476   0.16386   0.00000  Uiso   1.00
C3258  C     0.51488   0.56404   0.18945   0.00000  Uiso   1.00
H3259  H     0.56231   0.57841   0.15265   0.00000  Uiso   1.00
H3260  H     0.47434   0.55570   0.14546   0.00000  Uiso   1.00
H3261  H     0.45106   0.55742   0.18945   0.00000  Uiso   1.00
H3262  H     0.55685   0.64626   0.14546   0.00000  Uiso   1.00
H3263  H     0.52896   0.65172   0.19002   0.00000  Uiso   1.00
H3264  H     0.52350   0.53558   0.17910   0.00000  Uiso   1.00
H3265  H     0.51143   0.56461   0.22078   0.00000  Uiso   1.00
H3266  H     0.46744   0.62872   0.19807   0.00000  Uiso   1.00
C3267  C     0.44502   0.79316   0.04140   0.00000  Uiso   1.00
C3268  C     0.47434   0.73049   0.02961   0.00000  Uiso   1.00
C3269  C     0.47118   0.77131   0.01409   0.00000  Uiso   1.00
H3270  H     0.42461   0.81069   0.02501   0.00000  Uiso   1.00
H3271  H     0.46313   0.81299   0.05807   0.00000  Uiso   1.00
H3272  H     0.46054   0.70979   0.01006   0.00000  Uiso   1.00
H3273  H     0.50510   0.72388   0.03076   0.00000  Uiso   1.00
H3274  H     0.50108   0.78022   0.01035   0.00000  Uiso   1.00
O3275  O     0.47463   0.82306  -0.07015   0.00000  Uiso   1.00
H3276  H     0.37401   0.81098  -0.00949   0.00000  Uiso   1.00
H3277  H     0.34986   0.83599  -0.03852   0.00000  Uiso   1.00
C3278  C     0.53299   0.84203   0.25758   0.00000  Uiso   1.00
H3279  H     0.51603   0.86273   0.24120   0.00000  Uiso   1.00
O3280  O     0.57151   0.65689   0.24263   0.00000  Uiso   1.00
C3281  C     0.34526   0.99008   0.55024   0.00000  Uiso   1.00
H3282  H     0.32830   0.97628   0.52753   0.00000  Uiso   1.00
H3283  H     0.32514   1.01279   0.55944   0.00000  Uiso   1.00
C3284  C     0.55944   0.99928   0.46198   0.00000  Uiso   1.00
H3285  H     0.56375   0.99698   0.43065   0.00000  Uiso   1.00
H3286  H     0.57582   0.97657   0.47664   0.00000  Uiso   1.00
H3287  H     0.57237   1.02745   0.46831   0.00000  Uiso   1.00
C3288  C     0.57467   0.61435   0.24522   0.00000  Uiso   1.00
H3289  H     0.54650   0.60515   0.25614   0.00000  Uiso   1.00
O3290  O     0.49907   0.63131   0.14432   0.00000  Uiso   1.00
H3291  H     0.59135   0.91735   0.51171   0.00000  Uiso   1.00
C3292  C     0.41426   0.83139   0.51344   0.00000  Uiso   1.00
C3293  C     0.41023   0.87509   0.50654   0.00000  Uiso   1.00
C3294  C     0.38062   0.82248   0.54248   0.00000  Uiso   1.00
C3295  C     0.38321   0.85669   0.57122   0.00000  Uiso   1.00
C3296  C     0.39011   0.89061   0.54305   0.00000  Uiso   1.00
H3297  H     0.44329   0.82881   0.52609   0.00000  Uiso   1.00
H3298  H     0.43869   0.88688   0.49993   0.00000  Uiso   1.00
H3299  H     0.39184   0.88285   0.48182   0.00000  Uiso   1.00
H3300  H     0.35245   0.82536   0.52810   0.00000  Uiso   1.00
H3301  H     0.41110   0.85583   0.58588   0.00000  Uiso   1.00
H3302  H     0.35705   0.86043   0.58876   0.00000  Uiso   1.00
H3303  H     0.36165   0.89809   0.53184   0.00000  Uiso   1.00
C3304  C     0.18485   0.92856   0.33204   0.00000  Uiso   1.00
H3305  H     0.17278   0.91246   0.35648   0.00000  Uiso   1.00
H3306  H     0.16128   0.92914   0.31077   0.00000  Uiso   1.00
H3307  H     0.19031   0.95846   0.34124   0.00000  Uiso   1.00
O3308  O     0.35101   0.96133   0.58042   0.00000  Uiso   1.00
C3309  C     0.38781   0.94753   0.59480   0.00000  Uiso   1.00
C3310  C     0.40851   0.92712   0.56059   0.00000  Uiso   1.00
H3311  H     0.40592   0.97226   0.60256   0.00000  Uiso   1.00
H3312  H     0.38120   0.93057   0.62067   0.00000  Uiso   1.00
H3313  H     0.41685   0.94725   0.53759   0.00000  Uiso   1.00
H3314  H     0.43697   0.91505   0.56806   0.00000  Uiso   1.00
H3315  H     0.49418   0.57094   0.61262   0.00000  Uiso   1.00
C3316  C     0.48699   0.64798   0.40161   0.00000  Uiso   1.00
H3317  H     0.50625   0.66523   0.38321   0.00000  Uiso   1.00
H3318  H     0.46946   0.62699   0.38580   0.00000  Uiso   1.00
C3319  C     0.53644   0.83341   0.55570   0.00000  Uiso   1.00
H3320  H     0.56806   0.83513   0.55656   0.00000  Uiso   1.00
H3321  H     0.52839   0.85152   0.53098   0.00000  Uiso   1.00
C3322  C     0.53069   0.89579   0.66494   0.00000  Uiso   1.00
H3323  H     0.50424   0.91275   0.66293   0.00000  Uiso   1.00
C3324  C     0.43726   0.95587   0.38120   0.00000  Uiso   1.00
H3325  H     0.44876   0.97743   0.36136   0.00000  Uiso   1.00
H3326  H     0.46054   0.93575   0.38810   0.00000  Uiso   1.00
H3327  H     0.48354   0.73681   0.23372   0.00000  Uiso   1.00
C3328  C     0.31019   0.90355   0.10234   0.00000  Uiso   1.00
H3329  H     0.28346   0.89550   0.08768   0.00000  Uiso   1.00
H3330  H     0.31767   0.93230   0.09199   0.00000  Uiso   1.00
C3331  C     0.37574   0.76269   0.68363   0.00000  Uiso   1.00
H3332  H     0.38896   0.79115   0.67903   0.00000  Uiso   1.00
H3333  H     0.34440   0.76613   0.68679   0.00000  Uiso   1.00
O3334  O     0.34728   0.85267   0.34440   0.00000  Uiso   1.00
C3335  C     0.43668   0.86445   0.17939   0.00000  Uiso   1.00
H3336  H     0.44646   0.83427   0.18054   0.00000  Uiso   1.00
H3337  H     0.45681   0.87911   0.19894   0.00000  Uiso   1.00
H3338  H     0.44416   0.87681   0.15121   0.00000  Uiso   1.00
C3339  C     0.47089   0.83542   0.80667   0.00000  Uiso   1.00
H3340  H     0.45077   0.85870   0.79920   0.00000  Uiso   1.00
H3341  H     0.49418   0.84749   0.82449   0.00000  Uiso   1.00
C3342  C     0.38896   0.64453   0.22050   0.00000  Uiso   1.00
H3343  H     0.36481   0.62642   0.21101   0.00000  Uiso   1.00
H3344  H     0.41282   0.62441   0.22567   0.00000  Uiso   1.00
C3345  C     0.55282   0.90987   0.70203   0.00000  Uiso   1.00
C3346  C     0.57669   0.94552   0.69743   0.00000  Uiso   1.00
H3347  H     0.56749   0.88831   0.71985   0.00000  Uiso   1.00
H3348  H     0.53328   0.91792   0.72560   0.00000  Uiso   1.00
H3349  H     0.60745   0.94006   0.70174   0.00000  Uiso   1.00
H3350  H     0.57324   0.96680   0.72071   0.00000  Uiso   1.00
C3351  C     0.62354   0.84577   0.40506   0.00000  Uiso   1.00
H3352  H     0.62124   0.83053   0.43237   0.00000  Uiso   1.00
H3353  H     0.65373   0.85554   0.40247   0.00000  Uiso   1.00
C3354  C     0.60543   0.61032   0.27684   0.00000  Uiso   1.00
H3355  H     0.63562   0.60687   0.26793   0.00000  Uiso   1.00
H3356  H     0.59825   0.58502   0.29495   0.00000  Uiso   1.00
H3357  H     0.54851   0.80897   0.47434   0.00000  Uiso   1.00
O3358  O     0.27742   0.92224   0.58272   0.00000  Uiso   1.00
O3359  O     0.26103   0.96133   0.53701   0.00000  Uiso   1.00
H3360  H     0.28892   0.94667   0.58933   0.00000  Uiso   1.00
C3361  C     0.35446   0.97197   0.39672   0.00000  Uiso   1.00
H3362  H     0.27656   1.01251   0.43783   0.00000  Uiso   1.00
C3363  C     0.40937   0.80351   0.48095   0.00000  Uiso   1.00
C3364  C     0.42978   0.70806   0.36280   0.00000  Uiso   1.00
H3365  H     0.40276   0.73652   0.31652   0.00000  Uiso   1.00
H3366  H     0.35418   0.77131   0.36079   0.00000  Uiso   1.00
H3367  H     0.36309   0.76872   0.42576   0.00000  Uiso   1.00
C3368  C     0.30990   0.63677   0.81846   0.00000  Uiso   1.00
C3369  C     0.29668   0.61808   0.85152   0.00000  Uiso   1.00
C3370  C     0.26448   0.68047   0.86704   0.00000  Uiso   1.00
C3371  C     0.27828   0.64252   0.87883   0.00000  Uiso   1.00
C3372  C     0.27569   0.62814   0.91649   0.00000  Uiso   1.00
C3373  C     0.24407   0.70289   0.89608   0.00000  Uiso   1.00
C3374  C     0.30990   0.58272   0.86302   0.00000  Uiso   1.00
C3375  C     0.30732   0.56864   0.89981   0.00000  Uiso   1.00
C3376  C     0.23976   0.68679   0.93460   0.00000  Uiso   1.00
C3377  C     0.25787   0.65114   0.94552   0.00000  Uiso   1.00
C3378  C     0.28806   0.59048   0.92885   0.00000  Uiso   1.00
C3379  C     0.28087   0.57784   0.96478   0.00000  Uiso   1.00
C3380  C     0.25787   0.64022   0.98548   0.00000  Uiso   1.00
C3381  C     0.26563   0.60141   0.99411   0.00000  Uiso   1.00
C3382  C     0.29840   0.67357   0.80724   0.00000  Uiso   1.00
C3383  C     0.32025   0.53069   0.90039   0.00000  Uiso   1.00
C3384  C     0.32572   0.55426   0.84117   0.00000  Uiso   1.00
N3385  N     0.33664   0.52149   0.86474   0.00000  Uiso   1.00
H3386  H     0.33894   0.49418   0.85525   0.00000  Uiso   1.00
C3387  C     0.27368   0.69513   0.83053   0.00000  Uiso   1.00
H3388  H     0.24263   0.65660   1.00704   0.00000  Uiso   1.00
H3389  H     0.22682   0.70260   0.95846   0.00000  Uiso   1.00
H3390  H     0.28604   0.54822   0.97398   0.00000  Uiso   1.00
H3391  H     0.32572   0.62067   0.79661   0.00000  Uiso   1.00
H3392  H     0.31077   0.50769   0.91965   0.00000  Uiso   1.00
H3393  H     0.34009   0.56001   0.81414   0.00000  Uiso   1.00
H3394  H     0.30732   0.68478   0.77936   0.00000  Uiso   1.00
C3395  C     0.25844   0.73681   0.81759   0.00000  Uiso   1.00
C3396  C     0.25327   0.76269   0.85382   0.00000  Uiso   1.00
C3397  C     0.22768   0.74199   0.88343   0.00000  Uiso   1.00
C3398  C     0.24781   0.58272   1.03090   0.00000  Uiso   1.00
C3399  C     0.25499   0.60515   1.06856   0.00000  Uiso   1.00
C3400  C     0.22337   0.59508   1.10105   0.00000  Uiso   1.00
H3401  H     0.28087   0.59451   1.08294   0.00000  Uiso   1.00
H3402  H     0.25701   0.55254   1.03263   0.00000  Uiso   1.00
H3403  H     0.21676   0.57841   1.02832   0.00000  Uiso   1.00
H3404  H     0.20037   0.73595   0.86877   0.00000  Uiso   1.00
H3405  H     0.28173   0.76786   0.86647   0.00000  Uiso   1.00
H3406  H     0.24206   0.79057   0.84433   0.00000  Uiso   1.00
H3407  H     0.23085   0.73480   0.80236   0.00000  Uiso   1.00
H3408  H     0.27886   0.75032   0.79747   0.00000  Uiso   1.00
C3409  C     0.00604   0.86330   0.99554   0.00000  Uiso   1.00
C3410  C     0.03392   0.87595   0.96651   0.00000  Uiso   1.00
C3411  C     0.01926   0.90154   0.93805   0.00000  Uiso   1.00
C3412  C     0.07187   0.86330   0.96708   0.00000  Uiso   1.00
C3413  C     0.08481   0.83772   0.99583   0.00000  Uiso   1.00
C3414  C     0.05922   0.82938   1.02717   0.00000  Uiso   1.00
C3415  C     0.01984   0.84203   1.02860   0.00000  Uiso   1.00
C3416  C     0.04398   0.91447   0.90987   0.00000  Uiso   1.00
C3417  C     0.09544   0.87423   0.93719   0.00000  Uiso   1.00
C3418  C     0.08394   0.90413   0.91217   0.00000  Uiso   1.00
C3419  C     0.14546   0.89866   0.88113   0.00000  Uiso   1.00
C3420  C     0.13339   0.85899   0.93460   0.00000  Uiso   1.00
C3421  C    -0.02012   0.91275   0.93604   0.00000  Uiso   1.00
C3422  C     0.03335   0.94322   0.88113   0.00000  Uiso   1.00
C3423  C     0.06037   0.95990   0.85612   0.00000  Uiso   1.00
C3424  C     0.10004   0.94552   0.85755   0.00000  Uiso   1.00
C3425  C     0.10982   0.91649   0.88458   0.00000  Uiso   1.00
H3426  H     0.16386   0.90096   0.85583   0.00000  Uiso   1.00
C3427  C     0.12390   0.82248   0.99439   0.00000  Uiso   1.00
C3428  C     0.14633   0.83024   0.96220   0.00000  Uiso   1.00
C3429  C    -0.04743   0.89895   0.96363   0.00000  Uiso   1.00
N3430  N     0.15553   0.87107   0.90499   0.00000  Uiso   1.00
C3431  C    -0.03450   0.87250   0.99238   0.00000  Uiso   1.00
H3432  H    -0.05548   0.85698   1.00934   0.00000  Uiso   1.00
C3433  C     0.18600   0.81012   0.95616   0.00000  Uiso   1.00
C3434  C     0.18427   0.77562   0.92914   0.00000  Uiso   1.00
H3435  H     0.16501   0.78310   0.90528   0.00000  Uiso   1.00
H3436  H     0.17191   0.74946   0.94207   0.00000  Uiso   1.00
H3437  H     0.20584   0.83082   0.94265   0.00000  Uiso   1.00
H3438  H     0.19836   0.80466   0.98462   0.00000  Uiso   1.00
O3439  O     0.22251   0.76815   0.91505   0.00000  Uiso   1.00
C3440  C    -0.00489   0.95530   0.88026   0.00000  Uiso   1.00
C3441  C    -0.01897   0.98203   0.85382   0.00000  Uiso   1.00
C3442  C     0.00661   0.99756   0.82909   0.00000  Uiso   1.00
C3443  C    -0.00632   1.02889   0.80178   0.00000  Uiso   1.00
C3444  C     0.00977   1.06856   0.81328   0.00000  Uiso   1.00
C3445  C     0.00000   1.10162   0.78223   0.00000  Uiso   1.00
C3446  C    -0.04312   1.10680   0.78051   0.00000  Uiso   1.00
H3447  H     0.01466   1.12807   0.79057   0.00000  Uiso   1.00
H3448  H    -0.00345   1.07834   0.84030   0.00000  Uiso   1.00
H3449  H     0.04140   1.06626   0.81299   0.00000  Uiso   1.00
H3450  H    -0.03795   1.03062   0.80092   0.00000  Uiso   1.00
H3451  H     0.00115   1.02055   0.77246   0.00000  Uiso   1.00
H3452  H    -0.04973   0.98721   0.85698   0.00000  Uiso   1.00
C3453  C    -0.09084   0.91390   0.96105   0.00000  Uiso   1.00
C3454  C    -0.12218   0.88400   0.95357   0.00000  Uiso   1.00
C3455  C    -0.11758   0.86503   0.91189   0.00000  Uiso   1.00
O3456  O    -0.13598   0.82881   0.91217   0.00000  Uiso   1.00
C3457  C    -0.13713   0.80322   0.87969   0.00000  Uiso   1.00
C3458  C    -0.09717   0.78568   0.87164   0.00000  Uiso   1.00
C3459  C    -0.08251   0.84289   0.82881   0.00000  Uiso   1.00
H3460  H    -0.10148   0.75607   0.86158   0.00000  Uiso   1.00
H3461  H    -0.08366   0.78166   0.90010   0.00000  Uiso   1.00
H3462  H    -0.15696   0.77965   0.88803   0.00000  Uiso   1.00
H3463  H    -0.08653   0.86532   0.90614   0.00000  Uiso   1.00
H3464  H    -0.13339   0.88285   0.89119   0.00000  Uiso   1.00
H3465  H    -0.11758   0.85957   0.97312   0.00000  Uiso   1.00
H3466  H    -0.15121   0.89521   0.95875   0.00000  Uiso   1.00
H3467  H    -0.09142   0.93719   0.93977   0.00000  Uiso   1.00
H3468  H    -0.09803   0.92482   0.98979   0.00000  Uiso   1.00
C3469  C     0.07446   0.80552   1.05994   0.00000  Uiso   1.00
C3470  C     0.10493   0.77591   1.04873   0.00000  Uiso   1.00
C3471  C     0.11959   0.75320   1.08668   0.00000  Uiso   1.00
H3472  H     0.09602   0.74544   1.10622   0.00000  Uiso   1.00
H3473  H     0.14029   0.77131   1.10249   0.00000  Uiso   1.00
H3474  H     0.08941   0.75492   1.03119   0.00000  Uiso   1.00
H3475  H     0.05146   0.78856   1.07345   0.00000  Uiso   1.00
H3476  H     0.08969   0.82421   1.08035   0.00000  Uiso   1.00
C3477  C     0.20210   0.66609   1.10939   0.00000  Uiso   1.00
C3478  C     0.14087   0.71726   1.07805   0.00000  Uiso   1.00
S3479  S     0.16214   0.69915   1.12261   0.00000  Uiso   1.00
H3480  H     0.16616   0.71841   1.05908   0.00000  Uiso   1.00
C3481  C     0.18657   0.62268   1.09961   0.00000  Uiso   1.00
C3482  C     0.16386   0.62038   1.06166   0.00000  Uiso   1.00
C3483  C     0.13080   0.59048   1.05764   0.00000  Uiso   1.00
H3484  H     0.10694   0.60400   1.07316   0.00000  Uiso   1.00
H3485  H     0.14058   0.56461   1.07316   0.00000  Uiso   1.00
H3486  H     0.16731   0.61521   1.12347   0.00000  Uiso   1.00
C3487  C    -0.16300   0.95932   0.78108   0.00000  Uiso   1.00
C3488  C    -0.10924   0.91304   0.79345   0.00000  Uiso   1.00
C3489  C    -0.12333   0.94811   0.77648   0.00000  Uiso   1.00
C3490  C    -0.09602   0.97370   0.75780   0.00000  Uiso   1.00
C3491  C    -0.06957   0.90240   0.78942   0.00000  Uiso   1.00
C3492  C    -0.17278   0.99756   0.76987   0.00000  Uiso   1.00
C3493  C    -0.14633   1.02113   0.75234   0.00000  Uiso   1.00
C3494  C    -0.04600   0.92655   0.76613   0.00000  Uiso   1.00
C3495  C    -0.05865   0.96220   0.75349   0.00000  Uiso   1.00
C3496  C    -0.10752   1.00877   0.74314   0.00000  Uiso   1.00
C3497  C    -0.17766   0.89464   0.80236   0.00000  Uiso   1.00
C3498  C    -0.16415   1.05476   0.73710   0.00000  Uiso   1.00
C3499  C    -0.20526   1.01883   0.76901   0.00000  Uiso   1.00
N3500  N    -0.20325   1.05476   0.74975   0.00000  Uiso   1.00
H3501  H    -0.22567   1.06569   0.73480   0.00000  Uiso   1.00
C3502  C    -0.13627   0.88630   0.80667   0.00000  Uiso   1.00
C3503  C    -0.12333   0.85037   0.82306   0.00000  Uiso   1.00
C3504  C    -0.02875   0.80408   0.85065   0.00000  Uiso   1.00
C3505  C    -0.00230   0.83283   0.83944   0.00000  Uiso   1.00
C3506  C    -0.01639   0.86474   0.81932   0.00000  Uiso   1.00
C3507  C    -0.19117   0.93144   0.79143   0.00000  Uiso   1.00
H3508  H    -0.04111   0.98175   0.73652   0.00000  Uiso   1.00
H3509  H    -0.08883   1.02832   0.72732   0.00000  Uiso   1.00
H3510  H    -0.22452   1.01596   0.79345   0.00000  Uiso   1.00
H3511  H    -0.01495   0.78080   0.86647   0.00000  Uiso   1.00
H3512  H    -0.19606   0.87020   0.80868   0.00000  Uiso   1.00
C3513  C    -0.15121   1.07719   0.69944   0.00000  Uiso   1.00
C3514  C    -0.17220   1.06425   0.66235   0.00000  Uiso   1.00
C3515  C    -0.18083   1.02113   0.65890   0.00000  Uiso   1.00
C3516  C    -0.14144   0.99813   0.65287   0.00000  Uiso   1.00
O3517  O    -0.10867   1.01049   0.65316   0.00000  Uiso   1.00
C3518  C    -0.14949   0.95673   0.64338   0.00000  Uiso   1.00
C3519  C    -0.11298   0.93000   0.64367   0.00000  Uiso   1.00
C3520  C    -0.12275   0.88716   0.63964   0.00000  Uiso   1.00
H3521  H    -0.09774   0.87480   0.62441   0.00000  Uiso   1.00
H3522  H    -0.09659   0.93604   0.67012   0.00000  Uiso   1.00
H3523  H    -0.09717   0.93661   0.61722   0.00000  Uiso   1.00
H3524  H    -0.16616   0.94753   0.66868   0.00000  Uiso   1.00
H3525  H    -0.19520   1.01394   0.68622   0.00000  Uiso   1.00
H3526  H    -0.15351   1.07431   0.63907   0.00000  Uiso   1.00
H3527  H    -0.12017   1.07288   0.69714   0.00000  Uiso   1.00
H3528  H    -0.15524   1.10824   0.70490   0.00000  Uiso   1.00
C3529  C    -0.17220   0.84002   0.61291   0.00000  Uiso   1.00
C3530  C    -0.20037   0.82852   0.58560   0.00000  Uiso   1.00
C3531  C    -0.21676   0.85583   0.56087   0.00000  Uiso   1.00
C3532  C    -0.15811   0.87854   0.61348   0.00000  Uiso   1.00
C3533  C    -0.25758   0.80466   0.53184   0.00000  Uiso   1.00
C3534  C    -0.18054   0.90729   0.59365   0.00000  Uiso   1.00
C3535  C    -0.24407   0.84260   0.53385   0.00000  Uiso   1.00
C3536  C    -0.16990   0.77246   0.63246   0.00000  Uiso   1.00
C3537  C    -0.15955   0.81156   0.63936   0.00000  Uiso   1.00
C3538  C    -0.13483   0.81989   0.67069   0.00000  Uiso   1.00
C3539  C    -0.15236   0.74256   0.65431   0.00000  Uiso   1.00
C3540  C    -0.12534   0.75032   0.68162   0.00000  Uiso   1.00
C3541  C    -0.11787   0.78942   0.69311   0.00000  Uiso   1.00
C3542  C    -0.20009   0.76154   0.60860   0.00000  Uiso   1.00
H3543  H    -0.11183   0.72618   0.69656   0.00000  Uiso   1.00
C3544  C    -0.25413   0.86992   0.50510   0.00000  Uiso   1.00
C3545  C    -0.23947   0.90700   0.50453   0.00000  Uiso   1.00
N3546  N    -0.24206   0.77878   0.55714   0.00000  Uiso   1.00
C3547  C    -0.20526   0.89636   0.56346   0.00000  Uiso   1.00
C3548  C    -0.21705   0.92281   0.53443   0.00000  Uiso   1.00
C3549  C    -0.21561   0.79000   0.58416   0.00000  Uiso   1.00
C3550  C    -0.27972   0.86158   0.47089   0.00000  Uiso   1.00
C3551  C    -0.27081   0.89608   0.44243   0.00000  Uiso   1.00
C3552  C    -0.24637   0.88170   0.40707   0.00000  Uiso   1.00
H3553  H    -0.26534   0.86014   0.39385   0.00000  Uiso   1.00
H3554  H    -0.24177   0.90211   0.38350   0.00000  Uiso   1.00
H3555  H    -0.29812   0.90643   0.43007   0.00000  Uiso   1.00
H3556  H    -0.26966   0.83398   0.45882   0.00000  Uiso   1.00
H3557  H    -0.30962   0.85698   0.47980   0.00000  Uiso   1.00
H3558  H    -0.27799   0.79431   0.51056   0.00000  Uiso   1.00
H3559  H    -0.21130   0.73221   0.61003   0.00000  Uiso   1.00
H3560  H    -0.16013   0.71295   0.64798   0.00000  Uiso   1.00
H3561  H    -0.20670   0.95213   0.53500   0.00000  Uiso   1.00
C3562  C    -0.09142   0.79460   0.72905   0.00000  Uiso   1.00
C3563  C    -0.04858   0.78827   0.71784   0.00000  Uiso   1.00
C3564  C    -0.02472   0.78051   0.75320   0.00000  Uiso   1.00
H3565  H    -0.02760   0.80581   0.77188   0.00000  Uiso   1.00
H3566  H    -0.03019   0.75809   0.77447   0.00000  Uiso   1.00
H3567  H    -0.04772   0.76355   0.69829   0.00000  Uiso   1.00
H3568  H    -0.03852   0.81386   0.70203   0.00000  Uiso   1.00
H3569  H    -0.09487   0.82277   0.74256   0.00000  Uiso   1.00
O3570  O    -0.20986   0.86675   0.42288   0.00000  Uiso   1.00
C3571  C    -0.18370   0.84490   0.39960   0.00000  Uiso   1.00
C3572  C    -0.14460   0.83685   0.42317   0.00000  Uiso   1.00
C3573  C    -0.15323   0.82478   0.46658   0.00000  Uiso   1.00
C3574  C    -0.16329   0.78137   0.47118   0.00000  Uiso   1.00
H3575  H    -0.15438   0.76498   0.44559   0.00000  Uiso   1.00
H3576  H    -0.19434   0.77821   0.47434   0.00000  Uiso   1.00
H3577  H    -0.17738   0.84174   0.47779   0.00000  Uiso   1.00
H3578  H    -0.12937   0.81299   0.40880   0.00000  Uiso   1.00
H3579  H    -0.12735   0.86330   0.42231   0.00000  Uiso   1.00
H3580  H    -0.19807   0.81788   0.39184   0.00000  Uiso   1.00
H3581  H    -0.17853   0.85957   0.37200   0.00000  Uiso   1.00
C3582  C    -0.02242   0.76613   0.59595   0.00000  Uiso   1.00
C3583  C    -0.04916   0.73681   0.58531   0.00000  Uiso   1.00
C3584  C    -0.02817   0.80523   0.58330   0.00000  Uiso   1.00
C3585  C     0.04945   0.73969   0.69110   0.00000  Uiso   1.00
C3586  C     0.07072   0.73250   0.72474   0.00000  Uiso   1.00
C3587  C     0.07704   0.69513   0.73566   0.00000  Uiso   1.00
C3588  C    -0.08021   0.74687   0.56030   0.00000  Uiso   1.00
C3589  C    -0.06123   0.81414   0.56087   0.00000  Uiso   1.00
C3590  C    -0.08596   0.78626   0.54736   0.00000  Uiso   1.00
C3591  C    -0.04283   0.69829   0.59537   0.00000  Uiso   1.00
C3592  C    -0.10666   0.71841   0.54449   0.00000  Uiso   1.00
C3593  C    -0.13397   0.72934   0.51718   0.00000  Uiso   1.00
C3594  C    -0.13713   0.76901   0.50539   0.00000  Uiso   1.00
C3595  C    -0.11384   0.79661   0.52091   0.00000  Uiso   1.00
H3596  H     0.07072   0.77763   0.63792   0.00000  Uiso   1.00
C3597  C    -0.01207   0.68995   0.62153   0.00000  Uiso   1.00
C3598  C     0.01179   0.71985   0.63677   0.00000  Uiso   1.00
C3599  C    -0.09976   0.67845   0.55656   0.00000  Uiso   1.00
C3600  C    -0.06670   0.66868   0.57927   0.00000  Uiso   1.00
C3601  C    -0.00546   0.65057   0.62872   0.00000  Uiso   1.00
C3602  C    -0.02846   0.62096   0.61262   0.00000  Uiso   1.00
C3603  C    -0.05893   0.62958   0.58905   0.00000  Uiso   1.00
C3604  C     0.03737   0.70921   0.66609   0.00000  Uiso   1.00
C3605  C     0.04657   0.67040   0.67472   0.00000  Uiso   1.00
C3606  C     0.02559   0.64051   0.65431   0.00000  Uiso   1.00
C3607  C    -0.02185   0.57726   0.62239   0.00000  Uiso   1.00
H3608  H    -0.03766   0.55685   0.60428   0.00000  Uiso   1.00
H3609  H    -0.03364   0.57410   0.65172   0.00000  Uiso   1.00
C3610  C     0.01064   0.75579   0.61837   0.00000  Uiso   1.00
H3611  H    -0.07474   0.60687   0.57467   0.00000  Uiso   1.00
H3612  H    -0.06210   0.84318   0.54851   0.00000  Uiso   1.00
H3613  H    -0.15179   0.70950   0.50108   0.00000  Uiso   1.00
C3614  C    -0.12937   0.64626   0.54305   0.00000  Uiso   1.00
C3615  C    -0.15610   0.62786   0.57467   0.00000  Uiso   1.00
H3616  H    -0.17335   0.60371   0.56375   0.00000  Uiso   1.00
H3617  H    -0.11557   0.62182   0.52868   0.00000  Uiso   1.00
C3618  C     0.02185   0.56979   0.62872   0.00000  Uiso   1.00
O3619  O     0.04542   0.57812   0.59365   0.00000  Uiso   1.00
C3620  C     0.07158   0.54937   0.57899   0.00000  Uiso   1.00
C3621  C     0.04628   0.51545   0.56231   0.00000  Uiso   1.00
C3622  C     0.05807   0.47405   0.57899   0.00000  Uiso   1.00
H3623  H     0.08854   0.46859   0.57180   0.00000  Uiso   1.00
H3624  H     0.03708   0.45566   0.56404   0.00000  Uiso   1.00
H3625  H     0.01552   0.52178   0.55972   0.00000  Uiso   1.00
H3626  H     0.05577   0.51344   0.53213   0.00000  Uiso   1.00
H3627  H     0.09372   0.53931   0.59882   0.00000  Uiso   1.00
H3628  H     0.08624   0.56317   0.55455   0.00000  Uiso   1.00
C3629  C     0.16703   0.72732   0.74400   0.00000  Uiso   1.00
C3630  C     0.16904   0.69225   0.76441   0.00000  Uiso   1.00
C3631  C     0.16013   0.66120   0.82852   0.00000  Uiso   1.00
C3632  C     0.14202   0.66667   0.86417   0.00000  Uiso   1.00
C3633  C     0.16013   0.69398   0.80466   0.00000  Uiso   1.00
C3634  C     0.14317   0.72589   0.82219   0.00000  Uiso   1.00
S3635  S     0.12419   0.71496   0.86992   0.00000  Uiso   1.00
C3636  C     0.17996   0.62843   0.81903   0.00000  Uiso   1.00
C3637  C     0.17709   0.59336   0.84433   0.00000  Uiso   1.00
C3638  C     0.20009   0.55714   0.83312   0.00000  Uiso   1.00
H3639  H     0.19922   0.53471   0.85525   0.00000  Uiso   1.00
H3640  H     0.23056   0.56490   0.83398   0.00000  Uiso   1.00
C3641  C     0.18830   0.53759   0.79373   0.00000  Uiso   1.00
C3642  C     0.17939   0.47176   0.74314   0.00000  Uiso   1.00
C3643  C     0.16473   0.45824   0.70461   0.00000  Uiso   1.00
C3644  C     0.01725   0.38867   0.82076   0.00000  Uiso   1.00
C3645  C     0.00345   0.43036   0.82219   0.00000  Uiso   1.00
C3646  C    -0.07618   0.45192   0.65689   0.00000  Uiso   1.00
C3647  C    -0.06698   0.46342   0.61780   0.00000  Uiso   1.00
C3648  C     0.00517   0.46629   0.63274   0.00000  Uiso   1.00
C3649  C    -0.02674   0.46859   0.60716   0.00000  Uiso   1.00
C3650  C     0.04542   0.46802   0.62124   0.00000  Uiso   1.00
C3651  C    -0.11413   0.44157   0.67328   0.00000  Uiso   1.00
C3652  C    -0.11672   0.43754   0.71410   0.00000  Uiso   1.00
C3653  C    -0.08624   0.43640   0.73681   0.00000  Uiso   1.00
C3654  C    -0.09602   0.42432   0.77390   0.00000  Uiso   1.00
C3655  C    -0.14748   0.42202   0.73336   0.00000  Uiso   1.00
N3656  N    -0.13253   0.41225   0.77217   0.00000  Uiso   1.00
C3657  C    -0.17565   0.39845   0.71410   0.00000  Uiso   1.00
C3658  C    -0.18542   0.41340   0.67357   0.00000  Uiso   1.00
C3659  C    -0.20756   0.38120   0.64942   0.00000  Uiso   1.00
C3660  C    -0.25068   0.37574   0.65689   0.00000  Uiso   1.00
H3661  H    -0.25586   0.37574   0.68823   0.00000  Uiso   1.00
H3662  H    -0.26419   0.34986   0.64424   0.00000  Uiso   1.00
H3663  H    -0.19089   0.35475   0.65373   0.00000  Uiso   1.00
H3664  H    -0.20066   0.39816   0.73307   0.00000  Uiso   1.00
H3665  H    -0.16530   0.36826   0.71439   0.00000  Uiso   1.00
H3666  H    -0.14317   0.38839   0.78511   0.00000  Uiso   1.00
H3667  H    -0.02012   0.47578   0.57726   0.00000  Uiso   1.00
C3668  C    -0.02932   0.43180   0.79172   0.00000  Uiso   1.00
H3669  H    -0.20440   0.38781   0.61866   0.00000  Uiso   1.00
H3670  H    -0.20727   0.43611   0.67673   0.00000  Uiso   1.00
H3671  H     0.02674   0.45134   0.81961   0.00000  Uiso   1.00
H3672  H    -0.01150   0.43438   0.84979   0.00000  Uiso   1.00
H3673  H    -0.00632   0.36797   0.82306   0.00000  Uiso   1.00
H3674  H     0.03507   0.38120   0.84577   0.00000  Uiso   1.00
H3675  H     0.15294   0.42950   0.70950   0.00000  Uiso   1.00
H3676  H     0.00546   0.77965   0.74400   0.00000  Uiso   1.00
C3677  C     0.13713   0.63303   0.88745   0.00000  Uiso   1.00
C3678  C     0.15495   0.59825   0.87825   0.00000  Uiso   1.00
C3679  C    -0.05548   0.87049   0.81299   0.00000  Uiso   1.00
C3680  C     0.13770   0.76010   0.79977   0.00000  Uiso   1.00
C3681  C     0.15236   0.76125   0.76269   0.00000  Uiso   1.00
H3682  H     0.15093   0.78885   0.74802   0.00000  Uiso   1.00
H3683  H     0.12017   0.78166   0.81414   0.00000  Uiso   1.00
H3684  H     0.00402   0.88860   0.81702   0.00000  Uiso   1.00
C3685  C    -0.05031   0.44502   0.72416   0.00000  Uiso   1.00
C3686  C    -0.04456   0.45249   0.68420   0.00000  Uiso   1.00
C3687  C    -0.00402   0.46026   0.67270   0.00000  Uiso   1.00
C3688  C     0.02559   0.45911   0.70116   0.00000  Uiso   1.00
C3689  C     0.07331   0.46974   0.64913   0.00000  Uiso   1.00
C3690  C     0.06353   0.46716   0.68852   0.00000  Uiso   1.00
C3691  C     0.01725   0.44904   0.73911   0.00000  Uiso   1.00
C3692  C    -0.02070   0.44071   0.75119   0.00000  Uiso   1.00
H3693  H     0.04111   0.44502   0.75924   0.00000  Uiso   1.00
C3694  C    -0.09947   0.47377   0.58588   0.00000  Uiso   1.00
C3695  C    -0.12390   0.51171   0.59940   0.00000  Uiso   1.00
C3696  C    -0.16099   0.51948   0.57582   0.00000  Uiso   1.00
H3697  H    -0.17163   0.54851   0.58243   0.00000  Uiso   1.00
H3698  H    -0.15696   0.51775   0.54449   0.00000  Uiso   1.00
H3699  H    -0.18456   0.49907   0.58215   0.00000  Uiso   1.00
H3700  H    -0.12879   0.51171   0.63044   0.00000  Uiso   1.00
H3701  H    -0.11672   0.44703   0.58445   0.00000  Uiso   1.00
H3702  H     0.22337   0.66695   1.13296   0.00000  Uiso   1.00
H3703  H     0.17393   0.72905   0.71353   0.00000  Uiso   1.00
H3704  H     0.05951   0.78223   0.59020   0.00000  Uiso   1.00
O3705  O     0.08481   0.62786   0.71755   0.00000  Uiso   1.00
C3706  C     0.11902   0.62096   0.74112   0.00000  Uiso   1.00
C3707  C     0.15581   0.63591   0.72330   0.00000  Uiso   1.00
C3708  C     0.18715   0.65517   0.74745   0.00000  Uiso   1.00
H3709  H     0.21015   0.66350   0.72732   0.00000  Uiso   1.00
H3710  H     0.14863   0.65862   0.70231   0.00000  Uiso   1.00
H3711  H     0.16760   0.61118   0.70749   0.00000  Uiso   1.00
H3712  H     0.11873   0.63131   0.77102   0.00000  Uiso   1.00
H3713  H     0.12304   0.58991   0.74630   0.00000  Uiso   1.00
H3714  H     0.21705   0.67903   1.08495   0.00000  Uiso   1.00
H3715  H     0.12017   0.69455   1.07115   0.00000  Uiso   1.00
C3716  C     0.04628   0.98577   0.82794   0.00000  Uiso   1.00
H3717  H     0.06526   0.99842   0.80667   0.00000  Uiso   1.00
H3718  H     0.00920   1.09501   0.75262   0.00000  Uiso   1.00
H3719  H     0.25959   0.63619   1.06483   0.00000  Uiso   1.00
H3720  H     0.18859   0.45738   0.68392   0.00000  Uiso   1.00
H3721  H    -0.14345   0.62326   0.60342   0.00000  Uiso   1.00
H3722  H    -0.14863   0.65775   0.52091   0.00000  Uiso   1.00
H3723  H     0.02329   0.53960   0.63821   0.00000  Uiso   1.00
H3724  H    -0.19865   1.08121   0.66005   0.00000  Uiso   1.00
H3725  H    -0.10378   0.53529   0.59365   0.00000  Uiso   1.00
H3726  H    -0.08682   0.47837   0.55742   0.00000  Uiso   1.00
C3727  C     0.11614   0.64022   0.92339   0.00000  Uiso   1.00
C3728  C     0.12994   0.61751   0.95846   0.00000  Uiso   1.00
C3729  C     0.13425   0.57640   0.94782   0.00000  Uiso   1.00
C3730  C     0.15955   0.56835   0.91160   0.00000  Uiso   1.00
H3731  H     0.11585   0.67069   0.93144   0.00000  Uiso   1.00
H3732  H     0.08567   0.63274   0.91879   0.00000  Uiso   1.00
H3733  H     0.15840   0.62814   0.96737   0.00000  Uiso   1.00
H3734  H     0.10637   0.56806   0.93546   0.00000  Uiso   1.00
H3735  H     0.18945   0.56921   0.92195   0.00000  Uiso   1.00
H3736  H     0.15783   0.53845   0.90125   0.00000  Uiso   1.00
C3737  C     0.22510   0.51976   0.77533   0.00000  Uiso   1.00
C3738  C     0.14633   0.48843   0.76958   0.00000  Uiso   1.00
C3739  C     0.21532   0.49820   0.73595   0.00000  Uiso   1.00
H3740  H     0.19347   0.44732   0.75722   0.00000  Uiso   1.00
H3741  H     0.24292   0.50194   0.79431   0.00000  Uiso   1.00
H3742  H     0.24465   0.54363   0.76815   0.00000  Uiso   1.00
H3743  H     0.12908   0.46313   0.77620   0.00000  Uiso   1.00
H3744  H     0.12822   0.51085   0.75636   0.00000  Uiso   1.00
H3745  H     0.23803   0.47923   0.72531   0.00000  Uiso   1.00
H3746  H     0.20526   0.52321   0.71928   0.00000  Uiso   1.00
H3747  H     0.17479   0.56030   0.77648   0.00000  Uiso   1.00
C3748  C     0.10292   0.61894   0.99439   0.00000  Uiso   1.00
C3749  C     0.14087   0.55627   0.98663   0.00000  Uiso   1.00
C3750  C     0.11470   0.58157   1.01653   0.00000  Uiso   1.00
H3751  H     0.10321   0.64654   1.01021   0.00000  Uiso   1.00
H3752  H     0.07273   0.61578   0.98491   0.00000  Uiso   1.00
H3753  H     0.17134   0.56145   0.99324   0.00000  Uiso   1.00
H3754  H     0.13282   0.52580   0.98721   0.00000  Uiso   1.00
H3755  H     0.08596   0.56892   1.01940   0.00000  Uiso   1.00
O3756  O     0.17910   0.63706   1.03493   0.00000  Uiso   1.00
H3757  H     0.24005   0.59738   1.12778   0.00000  Uiso   1.00
H3758  H     0.21532   0.56461   1.10047   0.00000  Uiso   1.00
C3759  C    -0.06670   0.42173   0.80293   0.00000  Uiso   1.00
H3760  H    -0.07101   0.41397   0.83312   0.00000  Uiso   1.00
O3761  O     0.09573   0.47147   0.70950   0.00000  Uiso   1.00
C3762  C    -0.00546   0.91476   0.75061   0.00000  Uiso   1.00
H3763  H    -0.00057   0.88371   0.74831   0.00000  Uiso   1.00
H3764  H     0.01610   0.92310   0.77246   0.00000  Uiso   1.00
C3765  C    -0.23401   0.93805   0.78568   0.00000  Uiso   1.00
H3766  H    -0.24493   0.95760   0.80782   0.00000  Uiso   1.00
H3767  H    -0.24982   0.91045   0.78741   0.00000  Uiso   1.00
H3768  H    -0.24206   0.94926   0.75751   0.00000  Uiso   1.00
C3769  C     0.13080   0.48239   0.68650   0.00000  Uiso   1.00
H3770  H     0.13454   0.51401   0.68765   0.00000  Uiso   1.00
O3771  O     0.16271   0.50683   0.80207   0.00000  Uiso   1.00
H3772  H    -0.26678   0.39931   0.64367   0.00000  Uiso   1.00
C3773  C     0.02846   0.82392   0.62326   0.00000  Uiso   1.00
C3774  C     0.05865   0.85612   0.62527   0.00000  Uiso   1.00
C3775  C     0.00431   0.83427   0.58962   0.00000  Uiso   1.00
C3776  C    -0.00575   0.87653   0.59738   0.00000  Uiso   1.00
C3777  C     0.03392   0.89378   0.61435   0.00000  Uiso   1.00
H3778  H     0.01322   0.82306   0.65086   0.00000  Uiso   1.00
H3779  H     0.07359   0.85870   0.65316   0.00000  Uiso   1.00
H3780  H     0.08078   0.85065   0.60371   0.00000  Uiso   1.00
H3781  H     0.02099   0.83312   0.56260   0.00000  Uiso   1.00
H3782  H    -0.02990   0.88026   0.61751   0.00000  Uiso   1.00
H3783  H    -0.01035   0.88889   0.56864   0.00000  Uiso   1.00
H3784  H     0.04858   0.90614   0.58933   0.00000  Uiso   1.00
C3785  C     0.13052   0.96737   0.83341   0.00000  Uiso   1.00
H3786  H     0.15984   0.96162   0.84375   0.00000  Uiso   1.00
H3787  H     0.12419   0.99813   0.83456   0.00000  Uiso   1.00
H3788  H     0.13080   0.95472   0.80437   0.00000  Uiso   1.00
O3789  O     0.00719   0.93230   0.71468   0.00000  Uiso   1.00
C3790  C     0.00057   0.91016   0.67932   0.00000  Uiso   1.00
C3791  C     0.03019   0.92425   0.64769   0.00000  Uiso   1.00
H3792  H     0.00374   0.87883   0.68190   0.00000  Uiso   1.00
H3793  H    -0.02904   0.91821   0.67155   0.00000  Uiso   1.00
H3794  H     0.02415   0.95098   0.63217   0.00000  Uiso   1.00
H3795  H     0.05922   0.92741   0.66005   0.00000  Uiso   1.00
H3796  H    -0.17766   0.65028   0.57985   0.00000  Uiso   1.00
C3797  C     0.03708   0.59738   0.66092   0.00000  Uiso   1.00
H3798  H     0.02702   0.58732   0.68938   0.00000  Uiso   1.00
H3799  H     0.06871   0.59508   0.65890   0.00000  Uiso   1.00
C3800  C    -0.12592   0.86215   0.67903   0.00000  Uiso   1.00
H3801  H    -0.14776   0.87653   0.69685   0.00000  Uiso   1.00
H3802  H    -0.09861   0.86762   0.69398   0.00000  Uiso   1.00
C3803  C    -0.17709   0.94983   0.60658   0.00000  Uiso   1.00
H3804  H    -0.16559   0.96680   0.58243   0.00000  Uiso   1.00
C3805  C    -0.15121   0.82277   0.84260   0.00000  Uiso   1.00
H3806  H    -0.18111   0.83139   0.84778   0.00000  Uiso   1.00
H3807  H    -0.15495   0.79948   0.82191   0.00000  Uiso   1.00
H3808  H     0.03421   0.38292   0.79488   0.00000  Uiso   1.00
C3809  C     0.13713   0.79747   1.02688   0.00000  Uiso   1.00
H3810  H     0.15639   0.77418   1.01768   0.00000  Uiso   1.00
H3811  H     0.15323   0.81644   1.04643   0.00000  Uiso   1.00
C3812  C    -0.11988   0.83427   0.49792   0.00000  Uiso   1.00
H3813  H    -0.13080   0.85468   0.51948   0.00000  Uiso   1.00
H3814  H    -0.09228   0.84548   0.48699   0.00000  Uiso   1.00
O3815  O    -0.03076   0.94121   0.90815   0.00000  Uiso   1.00
C3816  C    -0.00776   0.83628   1.06253   0.00000  Uiso   1.00
H3817  H     0.00719   0.82909   1.08955   0.00000  Uiso   1.00
H3818  H    -0.02990   0.81443   1.05649   0.00000  Uiso   1.00
H3819  H    -0.02530   0.86187   1.06799   0.00000  Uiso   1.00
C3820  C    -0.25183   0.92856   0.46658   0.00000  Uiso   1.00
H3821  H    -0.22797   0.93949   0.44904   0.00000  Uiso   1.00
H3822  H    -0.27483   0.94983   0.47032   0.00000  Uiso   1.00
C3823  C     0.20584   0.62929   0.78108   0.00000  Uiso   1.00
H3824  H     0.23430   0.64108   0.78827   0.00000  Uiso   1.00
H3825  H     0.21705   0.60285   0.76786   0.00000  Uiso   1.00
C3826  C    -0.21676   0.96996   0.61665   0.00000  Uiso   1.00
C3827  C    -0.21015   1.01308   0.62268   0.00000  Uiso   1.00
H3828  H    -0.23056   0.95702   0.64194   0.00000  Uiso   1.00
H3829  H    -0.23688   0.96536   0.59278   0.00000  Uiso   1.00
H3830  H    -0.23803   1.02688   0.62728   0.00000  Uiso   1.00
H3831  H    -0.19836   1.02602   0.59623   0.00000  Uiso   1.00
C3832  C    -0.14834   0.43036   0.65114   0.00000  Uiso   1.00
H3833  H    -0.15898   0.45508   0.63447   0.00000  Uiso   1.00
H3834  H    -0.13713   0.40880   0.63102   0.00000  Uiso   1.00
C3835  C     0.11672   0.47176   0.64568   0.00000  Uiso   1.00
H3836  H     0.12908   0.44473   0.63504   0.00000  Uiso   1.00
H3837  H     0.12994   0.49475   0.62843   0.00000  Uiso   1.00
H3838  H    -0.10177   0.77275   0.74917   0.00000  Uiso   1.00
O3839  O    -0.05951   1.10852   0.74687   0.00000  Uiso   1.00
O3840  O    -0.06411   1.11514   0.80724   0.00000  Uiso   1.00
H3841  H    -0.08567   1.11514   0.75435   0.00000  Uiso   1.00
C3842  C    -0.06957   0.80954   0.84864   0.00000  Uiso   1.00
H3843  H     0.02817   0.83111   0.84548   0.00000  Uiso   1.00
C3844  C     0.04628   0.78453   0.61894   0.00000  Uiso   1.00
C3845  C     0.06957   0.66437   0.70921   0.00000  Uiso   1.00
H3846  H     0.09401   0.69225   0.76182   0.00000  Uiso   1.00
H3847  H     0.07417   0.75665   0.74429   0.00000  Uiso   1.00
H3848  H     0.03910   0.76930   0.68909   0.00000  Uiso   1.00
loop_
_geom_bond_atom_site_label_1
_geom_bond_atom_site_label_2
_geom_bond_distance
_geom_bond_site_symmetry_2
_ccdc_geom_bond_type
C1     C2      1.392   .     S
C1     C15     1.387   .     S
C1     H24     1.086   .     S
C2     C4      1.445   .     S
C2     C7      1.356   .     S
C3     C4      1.437   .     S
C3     C6      1.420   .     S
C3     C20     1.438   .     S
C4     C5      1.434   .     S
C5     C11     1.390   .     S
C5     C10     1.437   .     S
C6     C9      1.441   .     S
C6     C30     1.521   .     S
C7     C8      1.371   .     S
C7     C17     1.371   .     S
C8     C11     1.412   .     S
C8     C16     1.339   .     S
C9     H22     1.099   .     S
C9     C10     1.418   .     S
C10    C13     1.417   .     S
C11    C12     1.436   .     S
C12    H23     1.091   .     S
C12    C14     1.357   .     S
C13    H21     1.085   .     S
C13    C14     1.391   .     S
C14    C31     1.503   .     S
C15    C20     1.402   .     S
C15    H27     1.086   .     S
C16    N18     1.379   .     S
C16    H25     1.092   .     S
C17    H26     1.086   .     S
C17    N18     1.403   .     S
N18    H19     1.002   .     S
C20    C28     1.516   .     S
C28    C29     1.549   .     S
C28    H40     1.099   .     S
C28    H41     1.106   .     S
C29    H39     1.095   .     S
C29    H38     1.100   .     S
C29    C30     1.513   .     S
C30    H37     1.099   .     S
C30    O72     1.455   .     S
C31    H36     1.095   .     S
C31    H35     1.103   .     S
C31    C32     1.565   .     S
C32    H34     1.106   .     S
C32    H352    1.102   .     S
C32    C33     1.561   .     S
C33    H390    1.103   .     S
C33    H391    1.101   .     S
C33    C114    1.624   .     S
C42    C64     1.459   .     S
C42    C48     1.443   .     S
C42    C43     1.382   .     S
C43    C45     1.442   .     S
C43    C44     1.351   .     S
C44    C54     1.431   .     S
C44    C49     1.438   .     S
C45    C50     1.366   .     S
C45    C46     1.493   .     S
C46    C60     1.438   .     S
C46    C47     1.433   .     S
C47    C48     1.434   .     S
C47    C102    1.544   .     S
C48    C449    1.572   .     S
C49    C55     1.444   .     S
C49    C51     1.399   .     S
C50    C51     1.469   .     S
C50    C53     1.430   .     S
C51    C58     1.461   .     S
C52    H59     1.091   .     S
C52    C58     1.425   .     S
C52    N63     1.390   .     S
C53    N63     1.336   .     S
C53    C61     1.446   .     S
C54    O448    1.382   .     S
C54    C62     1.423   .     S
C55    C73     1.411   .     S
C55    C56     1.432   .     S
C56    C57     1.478   .     S
C56    C349    1.460   .     S
C57    C58     1.406   .     S
C57    C418    1.599   .     S
C60    C442    1.576   .     S
C60    C61     1.477   .     S
C61    C66     1.595   .     S
C62    C86     1.628   .     S
C62    C64     1.427   .     S
C64    H65     1.092   .     S
C66    C67     1.562   .     S
C66    H70     1.097   .     S
C66    H71     1.097   .     S
C67    O72     1.451   .     S
C67    H69     1.108   .     S
C67    H68     1.098   .     S
C73    O448    1.373   .     S
C73    C74     1.396   .     S
C74    H85     1.086   .     S
C74    C75     1.399   .     S
C75    C349    1.389   .     S
C75    C76     1.496   .     S
C76    H83     1.098   .     S
C76    H84     1.103   .     S
C76    C77     1.579   .     S
C77    H82     1.098   .     S
C77    C78     1.589   .     S
C77    H81     1.097   .     S
C78    H80     1.109   .     S
C78    H351    1.099   .     S
C78    C79     1.558   .     S
C79    O473    1.207   .     S
C79    O472    1.302   .     S
C86    H100    1.098   .     S
C86    H101    1.102   .     S
C86    C87     1.623   .     S
C87    C88     1.551   .     S
C87    H99     1.091   .     S
C87    H98     1.105   .     S
C88    O89     1.448   .     S
C88    H97     1.093   .     S
C88    H96     1.104   .     S
O89    C90     1.477   .     S
C90    H95     1.099   .     S
C90    C438    1.511   .     S
C90    C91     1.548   .     S
C91    H93     1.100   .     S
C91    H94     1.095   .     S
C91    C475    1.606   .     S
C92    C475    1.403   .     S
C92    C136    1.467   .     S
C92    C312    1.434   .     S
C102   C103    1.501   .     S
C102   H109    1.105   .     S
C102   H108    1.096   .     S
C103   H107    1.101   .     S
C103   C104    1.603   .     S
C103   C442    1.602   .     S
C104   H105    1.100   .     S
C104   H106    1.105   .     S
C104   C111    1.559   .     S
C110   S112    1.832   .     S
C110   H347    1.097   .     S
C110   H335    1.105   .     S
C110   C114    1.575   .     S
C111   H113    1.104   .     S
C111   H348    1.098   .     S
C111   S112    1.883   .     S
C114   H119    1.096   .     S
C114   C115    1.590   .     S
C115   C116    1.504   .     S
C115   O389    1.259   .     S
C116   C383    1.638   .     S
C116   H117    1.097   .     S
C116   H118    1.106   .     S
C120   C122    1.459   .     S
C120   C140    1.408   .     S
C120   C125    1.456   .     S
C121   C135    1.409   .     S
C121   C124    1.464   .     S
C121   C122    1.447   .     S
C122   C123    1.394   .     S
C123   C128    1.432   .     S
C123   C129    1.431   .     S
C124   C312    1.435   .     S
C124   C127    1.422   .     S
C125   C126    1.351   .     S
C125   C132    1.388   .     S
C126   C131    1.359   .     S
C126   C129    1.415   .     S
C127   C395    1.524   .     S
C127   C128    1.376   .     S
C128   H141    1.085   .     S
C129   H142    1.089   .     S
C130   H145    1.095   .     S
C130   C135    1.458   .     S
C130   C140    1.472   .     S
C131   N133    1.401   .     S
C131   C146    1.495   .     S
C132   H143    1.088   .     S
C132   N133    1.431   .     S
N133   H134    1.007   .     S
C135   C136    1.450   .     S
C136   C438    1.524   .     S
C137   C475    1.385   .     S
C137   C138    1.397   .     S
C137   H144    1.090   .     S
C138   C139    1.429   .     S
C138   H476    1.088   .     S
C139   C312    1.441   .     S
C139   H317    1.100   .     S
C140   C398    1.559   .     S
C146   H161    1.092   .     S
C146   C147    1.577   .     S
C146   H160    1.104   .     S
C147   H357    1.101   .     S
C147   C148    1.536   .     S
C147   H159    1.093   .     S
C148   C149    1.504   .     S
C148   C460    1.521   .     S
C148   H158    1.105   .     S
C149   C151    1.501   .     S
C149   O150    1.231   .     S
C151   C436    1.585   .     S
C151   C152    1.522   .     S
C151   H157    1.101   .     S
C152   C153    1.573   .     S
C152   H155    1.099   .     S
C152   H156    1.091   .     S
C153   C165    1.578   .     S
C153   C433    1.556   .     S
C153   H154    1.108   .     S
C162   C170    1.449   .     S
C162   C163    1.429   .     S
C162   C165    1.416   .     S
C163   C164    1.453   .     S
C163   C182    1.366   .     S
C164   C168    1.385   .     S
C164   C180    1.438   .     S
C165   C167    1.434   .     S
C166   C168    1.408   .     S
C166   N179    1.368   .     S
C166   H191    1.094   .     S
C167   C180    1.412   .     S
C167   C436    1.542   .     S
C168   C177    1.445   .     S
C169   C172    1.439   .     S
C169   C175    1.463   .     S
C169   C170    1.397   .     S
C170   C171    1.477   .     S
C171   C433    1.517   .     S
C171   C174    1.417   .     S
C172   C173    1.413   .     S
C172   H193    1.083   .     S
C173   C174    1.411   .     S
C173   H176    1.091   .     S
C174   C195    1.536   .     S
C175   C182    1.409   .     S
C175   H192    1.090   .     S
C177   C178    1.416   .     S
C177   C183    1.522   .     S
C178   C181    1.390   .     S
C178   C453    1.526   .     S
N179   C182    1.399   .     S
C180   C181    1.375   .     S
C181   H194    1.082   .     S
C183   C184    1.506   .     S
C183   H189    1.097   .     S
C183   H190    1.099   .     S
C184   H188    1.101   .     S
C184   C185    1.517   .     S
C184   C453    1.555   .     S
C185   H186    1.108   .     S
C185   H187    1.104   .     S
C185   O203    1.489   .     S
C195   H202    1.096   .     S
C195   H471    1.101   .     S
C195   C196    1.532   .     S
C196   H200    1.104   .     S
C196   H201    1.102   .     S
C196   C197    1.511   .     S
C197   H198    1.104   .     S
C197   H199    1.098   .     S
C197   H309    1.104   .     S
O203   C204    1.378   .     S
C204   H213    1.104   .     S
C204   C205    1.555   .     S
C204   H214    1.099   .     S
C205   H211    1.094   .     S
C205   H212    1.098   .     S
C205   C206    1.519   .     S
C206   H210    1.102   .     S
C206   C207    1.614   .     S
C206   C445    1.636   .     S
C207   C227    1.494   .     S
C207   H208    1.102   .     S
C207   H209    1.099   .     S
C215   C216    1.461   .     S
C215   C243    1.462   .     S
C215   C217    1.395   .     S
C216   C221    1.433   .     S
C216   C224    1.431   .     S
C217   C222    1.485   .     S
C217   C408    1.525   .     S
C218   H481    1.097   .     S
C218   C219    1.404   .     S
C218   C237    1.424   .     S
C219   H480    1.100   .     S
C219   C220    1.372   .     S
C220   C478    1.396   .     S
C220   H479    1.096   .     S
C221   C223    1.412   .     S
C221   C225    1.466   .     S
C222   H245    1.094   .     S
C222   C223    1.422   .     S
C223   C228    1.402   .     S
C224   C233    1.466   .     S
C224   C230    1.412   .     S
C225   C226    1.430   .     S
C225   C232    1.450   .     S
C226   C227    1.354   .     S
C226   H246    1.085   .     S
C227   C228    1.450   .     S
C228   C445    1.545   .     S
H229   C477    1.101   .     S
C230   C234    1.423   .     S
C230   C231    1.475   .     S
C231   C243    1.429   .     S
C231   C237    1.460   .     S
C232   C233    1.445   .     S
C232   C247    1.529   .     S
C233   C236    1.365   .     S
C234   C239    1.446   .     S
C234   C235    1.443   .     S
C235   C240    1.594   .     S
C235   C236    1.426   .     S
C236   H244    1.088   .     S
C237   C238    1.419   .     S
C238   C239    1.441   .     S
C238   C478    1.464   .     S
C239   C430    1.531   .     S
C240   H241    1.099   .     S
C240   H242    1.097   .     S
C240   C251    1.539   .     S
C243   C477    1.596   .     S
C247   C248    1.527   .     S
C247   H250    1.103   .     S
C247   H355    1.105   .     S
C248   H249    1.103   .     S
C248   H354    1.106   .     S
C248   H429    1.097   .     S
C251   H356    1.098   .     S
C251   O252    1.442   .     S
C251   C430    1.561   .     S
O252   C253    1.435   .     S
C253   H260    1.106   .     S
C253   H261    1.100   .     S
C253   C254    1.533   .     S
C254   H258    1.105   .     S
C254   C255    1.544   .     S
C254   H259    1.102   .     S
C255   C283    1.583   .     S
C255   H256    1.102   .     S
C255   H257    1.098   .     S
C262   H336    1.088   .     S
C262   C263    1.381   .     S
C262   C314    1.469   .     S
C263   C266    1.445   .     S
C263   C341    1.557   .     S
C264   C266    1.372   .     S
C264   C269    1.407   .     S
C264   C265    1.453   .     S
C265   S268    1.772   .     S
C265   C310    1.467   .     S
C266   C267    1.407   .     S
C267   C313    1.410   .     S
C267   S268    1.739   .     S
C269   C270    1.453   .     S
C269   C456    1.577   .     S
C270   C311    1.490   .     S
C270   C271    1.579   .     S
C271   H272    1.104   .     S
C271   H273    1.101   .     S
C271   C274    1.490   .     S
C274   H380    1.101   .     S
C274   O404    1.482   .     S
C274   C370    1.550   .     S
C275   C371    1.581   .     S
C275   H373    1.107   .     S
C275   C276    1.616   .     S
C275   C372    1.584   .     S
C276   H308    1.097   .     S
C276   C402    1.575   .     S
C276   H353    1.099   .     S
C277   H306    1.102   .     S
C277   H307    1.100   .     S
C277   H441    1.103   .     S
C277   C278    1.602   .     S
C278   C301    1.486   .     S
C278   H304    1.103   .     S
C278   H305    1.095   .     S
C279   C280    1.459   .     S
C279   C319    1.418   .     S
C279   C284    1.518   .     S
C280   C327    1.500   .     S
C280   C282    1.454   .     S
C281   C282    1.392   .     S
C281   C283    1.446   .     S
C281   C320    1.442   .     S
C282   H300    1.093   .     S
C283   C322    1.383   .     S
C284   C285    1.395   .     S
C284   C465    1.544   .     S
C285   C286    1.336   .     S
C285   C288    1.440   .     S
C286   C318    1.366   .     S
C286   C287    1.359   .     S
C287   C392    1.388   .     S
C287   N289    1.365   .     S
C288   N289    1.359   .     S
C288   C290    1.508   .     S
N289   H299    1.011   .     S
C290   H298    1.098   .     S
C290   C291    1.559   .     S
C290   H297    1.099   .     S
C291   H303    1.102   .     S
C291   C465    1.579   .     S
C291   C292    1.526   .     S
C292   H296    1.100   .     S
C292   H302    1.098   .     S
C292   C293    1.541   .     S
C293   H295    1.102   .     S
C293   H405    1.100   .     S
C293   H294    1.104   .     S
C301   C392    1.445   .     S
C301   C325    1.485   .     S
C310   C360    1.515   .     S
C310   C311    1.468   .     S
C311   C363    1.580   .     S
C313   C314    1.415   .     S
C313   H316    1.089   .     S
C314   H315    1.091   .     S
C318   C325    1.413   .     S
C318   C319    1.407   .     S
C319   C320    1.409   .     S
C320   C321    1.484   .     S
C321   C323    1.427   .     S
C321   C324    1.428   .     S
C322   C468    1.488   .     S
C322   C323    1.347   .     S
C323   O394    1.385   .     S
C324   C325    1.436   .     S
C324   H326    1.084   .     S
C327   H334    1.105   .     S
C327   H359    1.101   .     S
C327   C328    1.565   .     S
C328   H333    1.102   .     S
C328   C329    1.531   .     S
C328   H358    1.098   .     S
C329   H330    1.094   .     S
C329   H331    1.109   .     S
C329   H332    1.098   .     S
H337   C477    1.108   .     S
O338   C339    1.505   .     S
O338   C478    1.384   .     S
C339   H346    1.099   .     S
C339   H345    1.100   .     S
C339   C340    1.521   .     S
C340   C341    1.504   .     S
C340   H344    1.100   .     S
C340   H343    1.096   .     S
C341   C456    1.613   .     S
C341   H342    1.099   .     S
C349   H350    1.093   .     S
C360   C361    1.552   .     S
C360   H365    1.096   .     S
C360   H364    1.097   .     S
C361   C381    1.548   .     S
C361   C362    1.551   .     S
C361   H366    1.108   .     S
C362   C363    1.548   .     S
C362   C382    1.510   .     S
C362   H367    1.099   .     S
C363   H368    1.091   .     S
C363   H369    1.098   .     S
C370   H374    1.097   .     S
C370   H375    1.105   .     S
C370   C372    1.498   .     S
C371   H377    1.099   .     S
C371   O404    1.465   .     S
C371   H376    1.100   .     S
C372   H378    1.101   .     S
C372   H379    1.103   .     S
C381   C383    1.552   .     S
C381   H384    1.098   .     S
C381   H385    1.098   .     S
C382   H386    1.102   .     S
C382   H387    1.092   .     S
C382   C383    1.642   .     S
C383   H388    1.108   .     S
C392   H393    1.092   .     S
O394   C402    1.510   .     S
C395   H397    1.099   .     S
C395   O422    1.439   .     S
C395   H396    1.095   .     S
C398   H401    1.100   .     S
C398   H399    1.096   .     S
C398   H400    1.103   .     S
C402   H403    1.108   .     S
C402   C468    1.508   .     S
C406   H411    1.100   .     S
C406   C477    1.531   .     S
C406   C408    1.550   .     S
C406   C407    1.482   .     S
C407   C410    1.565   .     S
C407   H413    1.099   .     S
C407   H412    1.096   .     S
C408   C409    1.537   .     S
C408   H414    1.096   .     S
C409   H415    1.104   .     S
C409   H416    1.105   .     S
C409   C410    1.581   .     S
C410   H417    1.097   .     S
C410   C424    1.622   .     S
C418   H419    1.098   .     S
C418   H421    1.102   .     S
C418   H420    1.102   .     S
O422   C423    1.436   .     S
C423   H425    1.097   .     S
C423   C424    1.568   .     S
C423   H426    1.102   .     S
C424   H428    1.097   .     S
C424   H427    1.099   .     S
C430   H431    1.096   .     S
C430   H432    1.094   .     S
C433   H434    1.098   .     S
C433   H435    1.107   .     S
C436   H437    1.099   .     S
C436   C459    1.523   .     S
C438   H440    1.096   .     S
C438   H439    1.105   .     S
C442   H443    1.099   .     S
C442   H444    1.104   .     S
C445   H446    1.100   .     S
C445   H447    1.102   .     S
C449   H451    1.105   .     S
C449   H450    1.098   .     S
C449   H452    1.095   .     S
C453   H454    1.099   .     S
C453   H455    1.098   .     S
C456   H457    1.098   .     S
C456   H458    1.107   .     S
C459   H462    1.096   .     S
C459   C460    1.613   .     S
C459   H461    1.101   .     S
C460   H464    1.102   .     S
C460   H463    1.100   .     S
C465   H466    1.108   .     S
C465   H467    1.095   .     S
C468   H470    1.105   .     S
C468   H469    1.101   .     S
O472   H474    0.966   .     S
C482   H505    1.088   .     S
C482   C496    1.367   .     S
C482   C483    1.437   .     S
C483   C488    1.385   .     S
C483   C485    1.491   .     S
C484   C485    1.429   .     S
C484   C487    1.401   .     S
C484   C501    1.435   .     S
C485   C486    1.434   .     S
C486   C491    1.376   .     S
C486   C492    1.464   .     S
C487   C511    1.539   .     S
C487   C490    1.426   .     S
C488   C498    1.361   .     S
C488   C489    1.353   .     S
C489   C492    1.381   .     S
C489   C497    1.363   .     S
C490   H503    1.094   .     S
C490   C491    1.435   .     S
C491   C494    1.405   .     S
C492   C493    1.416   .     S
C493   C495    1.416   .     S
C493   H504    1.088   .     S
C494   H502    1.092   .     S
C494   C495    1.416   .     S
C495   C512    1.562   .     S
C496   C501    1.439   .     S
C496   H508    1.089   .     S
C497   H506    1.092   .     S
C497   N499    1.379   .     S
C498   N499    1.443   .     S
C498   H507    1.090   .     S
N499   H500    1.009   .     S
C501   C509    1.533   .     S
C509   C510    1.573   .     S
C509   H521    1.102   .     S
C509   H522    1.104   .     S
C510   H520    1.099   .     S
C510   H519    1.097   .     S
C510   C511    1.547   .     S
C511   H518    1.102   .     S
C511   O553    1.498   .     S
C512   H517    1.103   .     S
C512   C513    1.543   .     S
C512   H516    1.099   .     S
C513   C514    1.616   .     S
C513   H833    1.106   .     S
C513   H515    1.102   .     S
C514   H872    1.096   .     S
C514   C595    1.487   .     S
C514   H871    1.106   .     S
C523   C524    1.429   .     S
C523   C545    1.426   .     S
C523   C529    1.438   .     S
C524   C526    1.401   .     S
C524   C525    1.526   .     S
C525   C535    1.381   .     S
C525   C530    1.394   .     S
C526   C527    1.422   .     S
C526   C531    1.453   .     S
C527   C541    1.454   .     S
C527   C528    1.399   .     S
C528   C583    1.539   .     S
C528   C529    1.430   .     S
C529   C930    1.516   .     S
C530   C532    1.418   .     S
C530   C536    1.417   .     S
C531   C534    1.435   .     S
C531   C532    1.449   .     S
C532   C539    1.421   .     S
C533   C539    1.426   .     S
C533   H540    1.093   .     S
C533   N544    1.328   .     S
C534   N544    1.365   .     S
C534   C542    1.492   .     S
C535   O929    1.414   .     S
C535   C543    1.385   .     S
C536   C537    1.389   .     S
C536   C554    1.466   .     S
C537   C538    1.426   .     S
C537   C830    1.486   .     S
C538   C539    1.400   .     S
C538   C899    1.579   .     S
C541   C542    1.426   .     S
C541   C923    1.583   .     S
C542   C547    1.567   .     S
C543   C545    1.414   .     S
C543   C567    1.569   .     S
C545   H546    1.090   .     S
C547   H552    1.102   .     S
C547   H551    1.092   .     S
C547   C548    1.524   .     S
C548   H549    1.108   .     S
C548   O553    1.491   .     S
C548   H550    1.098   .     S
C554   C555    1.410   .     S
C554   O929    1.388   .     S
C555   C556    1.405   .     S
C555   H566    1.095   .     S
C556   C830    1.409   .     S
C556   C557    1.507   .     S
C557   H564    1.104   .     S
C557   C558    1.549   .     S
C557   H565    1.102   .     S
C558   H562    1.105   .     S
C558   H563    1.096   .     S
C558   C559    1.573   .     S
C559   H832    1.104   .     S
C559   C560    1.544   .     S
C559   H561    1.092   .     S
C560   O954    1.208   .     S
C560   O953    1.346   .     S
C567   C568    1.544   .     S
C567   H581    1.102   .     S
C567   H582    1.092   .     S
C568   H580    1.103   .     S
C568   C569    1.512   .     S
C568   H579    1.096   .     S
C569   H577    1.098   .     S
C569   O570    1.484   .     S
C569   H578    1.094   .     S
O570   C571    1.474   .     S
C571   C572    1.542   .     S
C571   H576    1.097   .     S
C571   C919    1.489   .     S
C572   H575    1.100   .     S
C572   H574    1.105   .     S
C572   C956    1.569   .     S
C573   C617    1.436   .     S
C573   C956    1.471   .     S
C573   C793    1.430   .     S
C583   C584    1.556   .     S
C583   H589    1.096   .     S
C583   H590    1.099   .     S
C584   H588    1.099   .     S
C584   C923    1.556   .     S
C584   C585    1.527   .     S
C585   H587    1.103   .     S
C585   C592    1.487   .     S
C585   H586    1.107   .     S
C591   C595    1.591   .     S
C591   H828    1.100   .     S
C591   S593    1.785   .     S
C591   H816    1.102   .     S
C592   H594    1.097   .     S
C592   H829    1.100   .     S
C592   S593    1.825   .     S
C595   C596    1.569   .     S
C595   H600    1.093   .     S
C596   C597    1.553   .     S
C596   O870    1.223   .     S
C597   H598    1.101   .     S
C597   H599    1.096   .     S
C597   C864    1.577   .     S
C601   C621    1.413   .     S
C601   C603    1.477   .     S
C601   C606    1.390   .     S
C602   C616    1.437   .     S
C602   C605    1.451   .     S
C602   C603    1.430   .     S
C603   C604    1.462   .     S
C604   C609    1.385   .     S
C604   C610    1.385   .     S
C605   C793    1.423   .     S
C605   C608    1.445   .     S
C606   C607    1.379   .     S
C606   C613    1.357   .     S
C607   C610    1.399   .     S
C607   C612    1.377   .     S
C608   C609    1.417   .     S
C608   C876    1.560   .     S
C609   H622    1.085   .     S
C610   H623    1.090   .     S
C611   C616    1.413   .     S
C611   C621    1.447   .     S
C611   H626    1.085   .     S
C612   C627    1.494   .     S
C612   N614    1.445   .     S
C613   N614    1.417   .     S
C613   H624    1.096   .     S
N614   H615    1.014   .     S
C616   C617    1.449   .     S
C617   C919    1.551   .     S
C618   C956    1.429   .     S
C618   H625    1.090   .     S
C618   C619    1.426   .     S
C619   C620    1.383   .     S
C619   H957    1.088   .     S
C620   C793    1.405   .     S
C620   H798    1.087   .     S
C621   C879    1.457   .     S
C627   H641    1.103   .     S
C627   C628    1.549   .     S
C627   H642    1.102   .     S
C628   C629    1.550   .     S
C628   H838    1.100   .     S
C628   H640    1.090   .     S
C629   C941    1.535   .     S
C629   C630    1.528   .     S
C629   H639    1.103   .     S
C630   O631    1.245   .     S
C630   C632    1.563   .     S
C632   H638    1.096   .     S
C632   C917    1.569   .     S
C632   C633    1.509   .     S
C633   C634    1.568   .     S
C633   H637    1.098   .     S
C633   H636    1.106   .     S
C634   C646    1.511   .     S
C634   H635    1.097   .     S
C634   C914    1.531   .     S
C643   C644    1.404   .     S
C643   C646    1.447   .     S
C643   C651    1.358   .     S
C644   C663    1.427   .     S
C644   C645    1.412   .     S
C645   C661    1.402   .     S
C645   C649    1.463   .     S
C646   C648    1.420   .     S
C647   N660    1.336   .     S
C647   H672    1.082   .     S
C647   C649    1.455   .     S
C648   C917    1.517   .     S
C648   C661    1.431   .     S
C649   C658    1.412   .     S
C650   C656    1.466   .     S
C650   C653    1.410   .     S
C650   C651    1.427   .     S
C651   C652    1.430   .     S
C652   C914    1.540   .     S
C652   C655    1.417   .     S
C653   H674    1.086   .     S
C653   C654    1.389   .     S
C654   C655    1.454   .     S
C654   H657    1.092   .     S
C655   C676    1.518   .     S
C656   C663    1.378   .     S
C656   H673    1.083   .     S
C658   C664    1.523   .     S
C658   C659    1.379   .     S
C659   C662    1.376   .     S
C659   C934    1.534   .     S
N660   C663    1.391   .     S
C661   C662    1.479   .     S
C662   H675    1.089   .     S
C664   C665    1.563   .     S
C664   H671    1.100   .     S
C664   H670    1.104   .     S
C665   C934    1.564   .     S
C665   H669    1.099   .     S
C665   C666    1.536   .     S
C666   H668    1.106   .     S
C666   H667    1.108   .     S
C666   O684    1.444   .     S
C676   C677    1.566   .     S
C676   H683    1.103   .     S
C676   H952    1.099   .     S
C677   H682    1.096   .     S
C677   H681    1.101   .     S
C677   C678    1.447   .     S
C678   H679    1.105   .     S
C678   H790    1.099   .     S
C678   H680    1.104   .     S
O684   C685    1.447   .     S
C685   C686    1.567   .     S
C685   H694    1.095   .     S
C685   H695    1.097   .     S
C686   H692    1.104   .     S
C686   H693    1.102   .     S
C686   C687    1.599   .     S
C687   C688    1.603   .     S
C687   C926    1.517   .     S
C687   H691    1.102   .     S
C688   H689    1.094   .     S
C688   H690    1.092   .     S
C688   C708    1.563   .     S
C696   C697    1.428   .     S
C696   C698    1.383   .     S
C696   C724    1.457   .     S
C697   C702    1.409   .     S
C697   C705    1.428   .     S
C698   C889    1.579   .     S
C698   C703    1.409   .     S
C699   C700    1.399   .     S
C699   C718    1.446   .     S
C699   H962    1.094   .     S
C700   H961    1.093   .     S
C700   C701    1.371   .     S
C701   C959    1.372   .     S
C701   H960    1.090   .     S
C702   C704    1.417   .     S
C702   C706    1.456   .     S
C703   H726    1.093   .     S
C703   C704    1.411   .     S
C704   C709    1.405   .     S
C705   C714    1.434   .     S
C705   C711    1.450   .     S
C706   C707    1.377   .     S
C706   C713    1.405   .     S
C707   H727    1.084   .     S
C707   C708    1.427   .     S
C708   C709    1.389   .     S
C709   C926    1.510   .     S
H710   C958    1.097   .     S
C711   C715    1.480   .     S
C711   C712    1.397   .     S
C712   C724    1.425   .     S
C712   C718    1.440   .     S
C713   C714    1.417   .     S
C713   C728    1.530   .     S
C714   C717    1.368   .     S
C715   C716    1.428   .     S
C715   C720    1.473   .     S
C716   C721    1.550   .     S
C716   C717    1.468   .     S
C717   H725    1.094   .     S
C718   C719    1.414   .     S
C719   C959    1.412   .     S
C719   C720    1.416   .     S
C720   C911    1.566   .     S
C721   H722    1.097   .     S
C721   H723    1.098   .     S
C721   C732    1.536   .     S
C724   C958    1.623   .     S
C728   H836    1.105   .     S
C728   C729    1.525   .     S
C728   H731    1.094   .     S
C729   H730    1.103   .     S
C729   H835    1.091   .     S
C729   H910    1.105   .     S
C732   O733    1.447   .     S
C732   H837    1.104   .     S
C732   C911    1.541   .     S
O733   C734    1.461   .     S
C734   H741    1.100   .     S
C734   H742    1.099   .     S
C734   C735    1.538   .     S
C735   H740    1.102   .     S
C735   H739    1.101   .     S
C735   C736    1.605   .     S
C736   H737    1.102   .     S
C736   H738    1.100   .     S
C736   C764    1.456   .     S
C743   C744    1.432   .     S
C743   C795    1.434   .     S
C743   H817    1.091   .     S
C744   C822    1.499   .     S
C744   C747    1.435   .     S
C745   C750    1.426   .     S
C745   C747    1.396   .     S
C745   C746    1.381   .     S
C746   S749    1.759   .     S
C746   C791    1.413   .     S
C747   C748    1.390   .     S
C748   C794    1.435   .     S
C748   S749    1.787   .     S
C750   C937    1.525   .     S
C750   C751    1.448   .     S
C751   C752    1.583   .     S
C751   C792    1.523   .     S
C752   H753    1.097   .     S
C752   H754    1.105   .     S
C752   C755    1.475   .     S
C755   C851    1.502   .     S
C755   H861    1.098   .     S
C755   O885    1.433   .     S
C756   C757    1.573   .     S
C756   C853    1.653   .     S
C756   C852    1.523   .     S
C756   H854    1.096   .     S
C757   H834    1.103   .     S
C757   C883    1.556   .     S
C757   H789    1.098   .     S
C758   C759    1.535   .     S
C758   H787    1.098   .     S
C758   H788    1.102   .     S
C758   H922    1.097   .     S
C759   H785    1.094   .     S
C759   C782    1.579   .     S
C759   H786    1.099   .     S
C760   C765    1.446   .     S
C760   C800    1.435   .     S
C760   C761    1.389   .     S
C761   C763    1.459   .     S
C761   C808    1.550   .     S
C762   C763    1.426   .     S
C762   C764    1.441   .     S
C762   C801    1.453   .     S
C763   H781    1.081   .     S
C764   C803    1.405   .     S
C765   C766    1.377   .     S
C765   C946    1.576   .     S
C766   C767    1.367   .     S
C766   C769    1.356   .     S
C767   C768    1.346   .     S
C767   C799    1.395   .     S
C768   C873    1.389   .     S
C768   N770    1.404   .     S
C769   N770    1.419   .     S
C769   C771    1.530   .     S
N770   H780    1.008   .     S
C771   H779    1.093   .     S
C771   C772    1.592   .     S
C771   H778    1.097   .     S
C772   H784    1.096   .     S
C772   C946    1.611   .     S
C772   C773    1.529   .     S
C773   H783    1.100   .     S
C773   C774    1.610   .     S
C773   H777    1.099   .     S
C774   H775    1.097   .     S
C774   H776    1.099   .     S
C774   H886    1.097   .     S
C782   C806    1.412   .     S
C782   C873    1.411   .     S
C791   C792    1.410   .     S
C791   C841    1.548   .     S
C792   C844    1.564   .     S
C794   C795    1.398   .     S
C794   H797    1.087   .     S
C795   H796    1.086   .     S
C799   C800    1.419   .     S
C799   C806    1.374   .     S
C800   C801    1.433   .     S
C801   C802    1.428   .     S
C802   C804    1.398   .     S
C802   C805    1.410   .     S
C803   C949    1.494   .     S
C803   C804    1.359   .     S
C804   O875    1.373   .     S
C805   C806    1.380   .     S
C805   H807    1.095   .     S
C808   C809    1.506   .     S
C808   H815    1.102   .     S
C808   H840    1.101   .     S
C809   H814    1.106   .     S
C809   H839    1.094   .     S
C809   C810    1.566   .     S
C810   H812    1.098   .     S
C810   H811    1.099   .     S
C810   H813    1.100   .     S
H818   C958    1.101   .     S
O819   C820    1.472   .     S
O819   C959    1.443   .     S
C820   H827    1.101   .     S
C820   H826    1.097   .     S
C820   C821    1.570   .     S
C821   C822    1.523   .     S
C821   H825    1.104   .     S
C821   H824    1.103   .     S
C822   H823    1.100   .     S
C822   C937    1.613   .     S
C830   H831    1.091   .     S
C841   C842    1.523   .     S
C841   H845    1.109   .     S
C841   H846    1.098   .     S
C842   C843    1.516   .     S
C842   H847    1.097   .     S
C842   C862    1.617   .     S
C843   C844    1.483   .     S
C843   H848    1.098   .     S
C843   C863    1.557   .     S
C844   H849    1.099   .     S
C844   H850    1.096   .     S
C851   H856    1.104   .     S
C851   C853    1.582   .     S
C851   H855    1.096   .     S
C852   H858    1.101   .     S
C852   O885    1.497   .     S
C852   H857    1.102   .     S
C853   H859    1.098   .     S
C853   H860    1.095   .     S
C862   C864    1.561   .     S
C862   H866    1.104   .     S
C862   H865    1.097   .     S
C863   H867    1.102   .     S
C863   H868    1.103   .     S
C863   C864    1.582   .     S
C864   H869    1.108   .     S
C873   H874    1.098   .     S
O875   C883    1.477   .     S
C876   H877    1.100   .     S
C876   O903    1.443   .     S
C876   H878    1.098   .     S
C879   H880    1.099   .     S
C879   H881    1.104   .     S
C879   H882    1.093   .     S
C883   C949    1.568   .     S
C883   H884    1.106   .     S
C887   H892    1.100   .     S
C887   C958    1.566   .     S
C887   C888    1.547   .     S
C887   C889    1.548   .     S
C888   H893    1.100   .     S
C888   H894    1.099   .     S
C888   C891    1.599   .     S
C889   C890    1.634   .     S
C889   H895    1.102   .     S
C890   C891    1.521   .     S
C890   H897    1.100   .     S
C890   H896    1.099   .     S
C891   H898    1.095   .     S
C891   C905    1.589   .     S
C899   H900    1.098   .     S
C899   H901    1.096   .     S
C899   H902    1.101   .     S
O903   C904    1.461   .     S
C904   H906    1.093   .     S
C904   H907    1.105   .     S
C904   C905    1.558   .     S
C905   H908    1.093   .     S
C905   H909    1.105   .     S
C911   H913    1.103   .     S
C911   H912    1.099   .     S
C914   H916    1.103   .     S
C914   H915    1.099   .     S
C917   H918    1.096   .     S
C917   C940    1.648   .     S
C919   H921    1.101   .     S
C919   H920    1.100   .     S
C923   H925    1.097   .     S
C923   H924    1.095   .     S
C926   H928    1.104   .     S
C926   H927    1.101   .     S
C930   H933    1.105   .     S
C930   H932    1.092   .     S
C930   H931    1.103   .     S
C934   H935    1.100   .     S
C934   H936    1.097   .     S
C937   H938    1.095   .     S
C937   H939    1.097   .     S
C940   H943    1.101   .     S
C940   H942    1.108   .     S
C940   C941    1.582   .     S
C941   H945    1.096   .     S
C941   H944    1.099   .     S
C946   H947    1.099   .     S
C946   H948    1.099   .     S
C949   H950    1.094   .     S
C949   H951    1.100   .     S
O953   H955    0.963   .     S
C963   C977    1.416   .     S
C963   H986    1.089   .     S
C963   C964    1.377   .     S
C964   C966    1.435   .     S
C964   C969    1.409   .     S
C965   C968    1.396   .     S
C965   C982    1.434   .     S
C965   C966    1.454   .     S
C966   C967    1.435   .     S
C967   C972    1.440   .     S
C967   C973    1.404   .     S
C968   C992    1.542   .     S
C968   C971    1.479   .     S
C969   C970    1.402   .     S
C969   C979    1.412   .     S
C970   C978    1.391   .     S
C970   C973    1.441   .     S
C971   H984    1.091   .     S
C971   C972    1.377   .     S
C972   C975    1.358   .     S
C973   C974    1.369   .     S
C974   H985    1.092   .     S
C974   C976    1.466   .     S
C975   C976    1.406   .     S
C975   H983    1.092   .     S
C976   C993    1.485   .     S
C977   H989    1.099   .     S
C977   C982    1.403   .     S
C978   H987    1.087   .     S
C978   N980    1.380   .     S
C979   N980    1.416   .     S
C979   H988    1.086   .     S
N980   H981    1.006   .     S
C982   C990    1.536   .     S
C990   C991    1.639   .     S
C990   H1002   1.103   .     S
C990   H1003   1.097   .     S
C991   H1000   1.101   .     S
C991   H1001   1.101   .     S
C991   C992    1.623   .     S
C992   H999    1.094   .     S
C992   O1034   1.440   .     S
C993   H998    1.099   .     S
C993   C994    1.583   .     S
C993   H997    1.101   .     S
C994   H996    1.106   .     S
C994   H1314   1.092   .     S
C994   C995    1.559   .     S
C995   H1352   1.101   .     S
C995   H1353   1.098   .     S
C995   C1076   1.626   .     S
C1004  C1005   1.397   .     S
C1004  C1026   1.485   .     S
C1004  C1010   1.417   .     S
C1005  C1007   1.427   .     S
C1005  C1006   1.415   .     S
C1006  C1016   1.434   .     S
C1006  C1011   1.375   .     S
C1007  C1012   1.388   .     S
C1007  C1008   1.398   .     S
C1008  C1009   1.359   .     S
C1008  C1022   1.494   .     S
C1009  C1010   1.431   .     S
C1009  C1064   1.583   .     S
C1010  C1411   1.550   .     S
C1011  C1017   1.407   .     S
C1011  C1013   1.402   .     S
C1012  C1013   1.403   .     S
C1012  C1015   1.464   .     S
C1013  C1020   1.421   .     S
C1014  H1021   1.083   .     S
C1014  N1025   1.363   .     S
C1014  C1020   1.478   .     S
C1015  N1025   1.313   .     S
C1015  C1023   1.346   .     S
C1016  O1410   1.345   .     S
C1016  C1024   1.440   .     S
C1017  C1018   1.423   .     S
C1017  C1035   1.435   .     S
C1018  C1019   1.467   .     S
C1018  C1311   1.379   .     S
C1019  C1380   1.531   .     S
C1019  C1020   1.433   .     S
C1022  C1023   1.430   .     S
C1022  C1404   1.517   .     S
C1023  C1028   1.604   .     S
C1024  C1048   1.620   .     S
C1024  C1026   1.379   .     S
C1026  H1027   1.097   .     S
C1028  H1033   1.105   .     S
C1028  H1032   1.099   .     S
C1028  C1029   1.599   .     S
C1029  H1030   1.101   .     S
C1029  O1034   1.408   .     S
C1029  H1031   1.107   .     S
C1035  O1410   1.372   .     S
C1035  C1036   1.414   .     S
C1036  H1047   1.093   .     S
C1036  C1037   1.392   .     S
C1037  C1311   1.409   .     S
C1037  C1038   1.543   .     S
C1038  H1045   1.095   .     S
C1038  H1046   1.094   .     S
C1038  C1039   1.536   .     S
C1039  H1044   1.097   .     S
C1039  H1043   1.105   .     S
C1039  C1040   1.550   .     S
C1040  H1042   1.107   .     S
C1040  H1313   1.099   .     S
C1040  C1041   1.559   .     S
C1041  O1435   1.202   .     S
C1041  O1434   1.357   .     S
C1048  H1062   1.098   .     S
C1048  H1063   1.093   .     S
C1048  C1049   1.598   .     S
C1049  H1060   1.100   .     S
C1049  H1061   1.093   .     S
C1049  C1050   1.620   .     S
C1050  H1058   1.098   .     S
C1050  O1051   1.451   .     S
C1050  H1059   1.096   .     S
O1051  C1052   1.475   .     S
C1052  C1053   1.529   .     S
C1052  H1057   1.103   .     S
C1052  C1400   1.517   .     S
C1053  H1055   1.103   .     S
C1053  H1056   1.101   .     S
C1053  C1437   1.554   .     S
C1054  C1437   1.428   .     S
C1054  C1098   1.375   .     S
C1054  C1274   1.455   .     S
C1064  H1071   1.105   .     S
C1064  H1070   1.099   .     S
C1064  C1065   1.515   .     S
C1065  C1404   1.563   .     S
C1065  C1066   1.616   .     S
C1065  H1069   1.104   .     S
C1066  C1073   1.500   .     S
C1066  H1067   1.105   .     S
C1066  H1068   1.106   .     S
C1072  C1076   1.538   .     S
C1072  H1297   1.110   .     S
C1072  H1309   1.099   .     S
C1072  S1074   1.800   .     S
C1073  H1310   1.108   .     S
C1073  S1074   1.813   .     S
C1073  H1075   1.102   .     S
C1076  H1081   1.092   .     S
C1076  C1077   1.570   .     S
C1077  C1078   1.528   .     S
C1077  O1351   1.201   .     S
C1078  H1079   1.099   .     S
C1078  H1080   1.108   .     S
C1078  C1345   1.563   .     S
C1082  C1084   1.476   .     S
C1082  C1087   1.426   .     S
C1082  C1102   1.406   .     S
C1083  C1086   1.467   .     S
C1083  C1084   1.396   .     S
C1083  C1097   1.404   .     S
C1084  C1085   1.431   .     S
C1085  C1090   1.368   .     S
C1085  C1091   1.386   .     S
C1086  C1089   1.400   .     S
C1086  C1274   1.370   .     S
C1087  C1094   1.390   .     S
C1087  C1088   1.394   .     S
C1088  C1091   1.408   .     S
C1088  C1093   1.367   .     S
C1089  C1357   1.544   .     S
C1089  C1090   1.431   .     S
C1090  H1103   1.092   .     S
C1091  H1104   1.092   .     S
C1092  C1097   1.434   .     S
C1092  H1107   1.099   .     S
C1092  C1102   1.379   .     S
C1093  N1095   1.410   .     S
C1093  C1108   1.527   .     S
C1094  H1105   1.091   .     S
C1094  N1095   1.413   .     S
N1095  H1096   1.011   .     S
C1097  C1098   1.512   .     S
C1098  C1400   1.495   .     S
C1099  C1100   1.362   .     S
C1099  C1437   1.416   .     S
C1099  H1106   1.090   .     S
C1100  C1101   1.419   .     S
C1100  H1438   1.087   .     S
C1101  H1279   1.093   .     S
C1101  C1274   1.474   .     S
C1102  C1360   1.530   .     S
C1108  H1123   1.096   .     S
C1108  C1109   1.545   .     S
C1108  H1122   1.108   .     S
C1109  H1121   1.104   .     S
C1109  H1319   1.093   .     S
C1109  C1110   1.565   .     S
C1110  H1120   1.094   .     S
C1110  C1422   1.599   .     S
C1110  C1111   1.595   .     S
C1111  C1113   1.509   .     S
C1111  O1112   1.236   .     S
C1113  C1398   1.597   .     S
C1113  C1114   1.565   .     S
C1113  H1119   1.098   .     S
C1114  H1117   1.097   .     S
C1114  H1118   1.104   .     S
C1114  C1115   1.529   .     S
C1115  C1127   1.547   .     S
C1115  H1116   1.102   .     S
C1115  C1395   1.543   .     S
C1124  C1127   1.438   .     S
C1124  C1125   1.431   .     S
C1124  C1132   1.449   .     S
C1125  C1126   1.427   .     S
C1125  C1144   1.376   .     S
C1126  C1130   1.433   .     S
C1126  C1142   1.438   .     S
C1127  C1129   1.412   .     S
C1128  C1130   1.433   .     S
C1128  H1153   1.095   .     S
C1128  N1141   1.338   .     S
C1129  C1142   1.446   .     S
C1129  C1398   1.567   .     S
C1130  C1139   1.443   .     S
C1131  C1132   1.417   .     S
C1131  C1137   1.428   .     S
C1131  C1134   1.413   .     S
C1132  C1133   1.489   .     S
C1133  C1136   1.438   .     S
C1133  C1395   1.564   .     S
C1134  C1135   1.409   .     S
C1134  H1155   1.084   .     S
C1135  H1138   1.090   .     S
C1135  C1136   1.468   .     S
C1136  C1157   1.552   .     S
C1137  C1144   1.354   .     S
C1137  H1154   1.092   .     S
C1139  C1140   1.425   .     S
C1139  C1145   1.498   .     S
C1140  C1143   1.372   .     S
C1140  C1415   1.514   .     S
N1141  C1144   1.393   .     S
C1142  C1143   1.417   .     S
C1143  H1156   1.086   .     S
C1145  H1152   1.092   .     S
C1145  H1151   1.099   .     S
C1145  C1146   1.574   .     S
C1146  H1150   1.098   .     S
C1146  C1147   1.616   .     S
C1146  C1415   1.584   .     S
C1147  H1148   1.093   .     S
C1147  O1165   1.486   .     S
C1147  H1149   1.100   .     S
C1157  H1433   1.100   .     S
C1157  C1158   1.502   .     S
C1157  H1164   1.099   .     S
C1158  C1159   1.596   .     S
C1158  H1162   1.102   .     S
C1158  H1163   1.101   .     S
C1159  H1161   1.104   .     S
C1159  H1271   1.097   .     S
C1159  H1160   1.102   .     S
O1165  C1166   1.452   .     S
C1166  H1175   1.099   .     S
C1166  H1176   1.101   .     S
C1166  C1167   1.586   .     S
C1167  H1174   1.101   .     S
C1167  H1173   1.098   .     S
C1167  C1168   1.548   .     S
C1168  C1169   1.542   .     S
C1168  H1172   1.094   .     S
C1168  C1407   1.509   .     S
C1169  H1170   1.100   .     S
C1169  H1171   1.101   .     S
C1169  C1189   1.520   .     S
C1177  C1179   1.435   .     S
C1177  C1178   1.441   .     S
C1177  C1205   1.497   .     S
C1178  C1183   1.374   .     S
C1178  C1186   1.379   .     S
C1179  C1370   1.508   .     S
C1179  C1184   1.404   .     S
C1180  C1181   1.419   .     S
C1180  C1199   1.453   .     S
C1180  H1443   1.091   .     S
C1181  H1442   1.092   .     S
C1181  C1182   1.402   .     S
C1182  H1441   1.093   .     S
C1182  C1440   1.481   .     S
C1183  C1187   1.466   .     S
C1183  C1185   1.467   .     S
C1184  H1207   1.090   .     S
C1184  C1185   1.402   .     S
C1185  C1190   1.444   .     S
C1186  C1192   1.434   .     S
C1186  C1195   1.423   .     S
C1187  C1194   1.479   .     S
C1187  C1188   1.435   .     S
C1188  C1189   1.388   .     S
C1188  H1208   1.099   .     S
C1189  C1190   1.415   .     S
C1190  C1407   1.523   .     S
H1191  C1439   1.098   .     S
C1192  C1193   1.435   .     S
C1192  C1196   1.478   .     S
C1193  C1205   1.411   .     S
C1193  C1199   1.489   .     S
C1194  C1209   1.585   .     S
C1194  C1195   1.386   .     S
C1195  C1198   1.434   .     S
C1196  C1201   1.416   .     S
C1196  C1197   1.436   .     S
C1197  C1202   1.499   .     S
C1197  C1198   1.441   .     S
C1198  H1206   1.087   .     S
C1199  C1200   1.429   .     S
C1200  C1201   1.441   .     S
C1200  C1440   1.451   .     S
C1201  C1392   1.598   .     S
C1202  H1204   1.094   .     S
C1202  H1203   1.105   .     S
C1202  C1213   1.581   .     S
C1205  C1439   1.575   .     S
C1209  C1210   1.571   .     S
C1209  H1317   1.097   .     S
C1209  H1212   1.095   .     S
C1210  H1211   1.105   .     S
C1210  H1316   1.101   .     S
C1210  H1391   1.090   .     S
C1213  O1214   1.431   .     S
C1213  H1318   1.096   .     S
C1213  C1392   1.528   .     S
O1214  C1215   1.450   .     S
C1215  H1222   1.097   .     S
C1215  H1223   1.097   .     S
C1215  C1216   1.626   .     S
C1216  H1220   1.096   .     S
C1216  C1217   1.569   .     S
C1216  H1221   1.091   .     S
C1217  C1245   1.503   .     S
C1217  H1219   1.107   .     S
C1217  H1218   1.102   .     S
C1224  C1225   1.418   .     S
C1224  C1276   1.413   .     S
C1224  H1298   1.090   .     S
C1225  C1228   1.410   .     S
C1225  C1303   1.528   .     S
C1226  C1227   1.368   .     S
C1226  C1228   1.444   .     S
C1226  C1231   1.378   .     S
C1227  S1230   1.820   .     S
C1227  C1272   1.425   .     S
C1228  C1229   1.412   .     S
C1229  C1275   1.404   .     S
C1229  S1230   1.752   .     S
C1231  C1232   1.440   .     S
C1231  C1418   1.574   .     S
C1232  C1233   1.559   .     S
C1232  C1273   1.436   .     S
C1233  H1234   1.096   .     S
C1233  H1235   1.106   .     S
C1233  C1236   1.521   .     S
C1236  H1342   1.101   .     S
C1236  C1332   1.589   .     S
C1236  O1366   1.433   .     S
C1237  C1333   1.597   .     S
C1237  C1334   1.608   .     S
C1237  H1335   1.103   .     S
C1237  C1238   1.627   .     S
C1238  H1270   1.104   .     S
C1238  H1315   1.094   .     S
C1238  C1364   1.574   .     S
C1239  C1240   1.524   .     S
C1239  H1268   1.098   .     S
C1239  H1269   1.102   .     S
C1239  H1403   1.097   .     S
C1240  H1267   1.102   .     S
C1240  C1263   1.591   .     S
C1240  H1266   1.098   .     S
C1241  C1281   1.457   .     S
C1241  C1246   1.444   .     S
C1241  C1242   1.491   .     S
C1242  C1289   1.591   .     S
C1242  C1244   1.434   .     S
C1243  C1244   1.439   .     S
C1243  C1282   1.424   .     S
C1243  C1245   1.476   .     S
C1244  H1262   1.091   .     S
C1245  C1284   1.411   .     S
C1246  C1427   1.581   .     S
C1246  C1247   1.453   .     S
C1247  C1248   1.350   .     S
C1247  C1250   1.398   .     S
C1248  C1249   1.330   .     S
C1248  C1280   1.400   .     S
C1249  N1251   1.387   .     S
C1249  C1354   1.404   .     S
C1250  C1252   1.524   .     S
C1250  N1251   1.433   .     S
N1251  H1261   1.014   .     S
C1252  C1253   1.614   .     S
C1252  H1259   1.098   .     S
C1252  H1260   1.099   .     S
C1253  H1265   1.105   .     S
C1253  C1254   1.567   .     S
C1253  C1427   1.511   .     S
C1254  H1264   1.099   .     S
C1254  C1255   1.591   .     S
C1254  H1258   1.101   .     S
C1255  H1256   1.104   .     S
C1255  H1367   1.106   .     S
C1255  H1257   1.104   .     S
C1263  C1354   1.437   .     S
C1263  C1287   1.456   .     S
C1272  C1273   1.416   .     S
C1272  C1322   1.541   .     S
C1273  C1325   1.585   .     S
C1275  H1278   1.085   .     S
C1275  C1276   1.409   .     S
C1276  H1277   1.091   .     S
C1280  C1281   1.401   .     S
C1280  C1287   1.450   .     S
C1281  C1282   1.415   .     S
C1282  C1283   1.427   .     S
C1283  C1285   1.429   .     S
C1283  C1286   1.453   .     S
C1284  C1430   1.510   .     S
C1284  C1285   1.385   .     S
C1285  O1356   1.401   .     S
C1286  C1287   1.424   .     S
C1286  H1288   1.088   .     S
C1289  C1290   1.517   .     S
C1289  H1296   1.100   .     S
C1289  H1321   1.102   .     S
C1290  H1295   1.094   .     S
C1290  H1320   1.102   .     S
C1290  C1291   1.539   .     S
C1291  H1292   1.105   .     S
C1291  H1293   1.103   .     S
C1291  H1294   1.100   .     S
H1299  C1439   1.095   .     S
O1300  C1440   1.383   .     S
O1300  C1301   1.485   .     S
C1301  H1307   1.101   .     S
C1301  H1308   1.107   .     S
C1301  C1302   1.550   .     S
C1302  H1305   1.103   .     S
C1302  H1306   1.103   .     S
C1302  C1303   1.533   .     S
C1303  H1304   1.097   .     S
C1303  C1418   1.552   .     S
C1311  H1312   1.094   .     S
C1322  C1323   1.546   .     S
C1322  H1326   1.102   .     S
C1322  H1327   1.103   .     S
C1323  H1328   1.101   .     S
C1323  C1324   1.520   .     S
C1323  C1343   1.547   .     S
C1324  C1344   1.614   .     S
C1324  C1325   1.561   .     S
C1324  H1329   1.094   .     S
C1325  H1330   1.106   .     S
C1325  H1331   1.097   .     S
C1332  C1334   1.470   .     S
C1332  H1336   1.099   .     S
C1332  H1337   1.104   .     S
C1333  H1338   1.097   .     S
C1333  H1339   1.096   .     S
C1333  O1366   1.453   .     S
C1334  H1340   1.097   .     S
C1334  H1341   1.101   .     S
C1343  C1345   1.602   .     S
C1343  H1347   1.095   .     S
C1343  H1346   1.103   .     S
C1344  H1348   1.102   .     S
C1344  H1349   1.102   .     S
C1344  C1345   1.565   .     S
C1345  H1350   1.098   .     S
C1354  H1355   1.091   .     S
O1356  C1364   1.381   .     S
C1357  H1358   1.104   .     S
C1357  O1384   1.447   .     S
C1357  H1359   1.105   .     S
C1360  H1361   1.096   .     S
C1360  H1362   1.095   .     S
C1360  H1363   1.107   .     S
C1364  H1365   1.100   .     S
C1364  C1430   1.600   .     S
C1368  C1369   1.547   .     S
C1368  C1370   1.557   .     S
C1368  H1373   1.100   .     S
C1368  C1439   1.472   .     S
C1369  H1375   1.102   .     S
C1369  H1374   1.094   .     S
C1369  C1372   1.637   .     S
C1370  H1376   1.102   .     S
C1370  C1371   1.559   .     S
C1371  C1372   1.537   .     S
C1371  H1378   1.093   .     S
C1371  H1377   1.103   .     S
C1372  C1386   1.546   .     S
C1372  H1379   1.098   .     S
C1380  H1382   1.098   .     S
C1380  H1383   1.101   .     S
C1380  H1381   1.102   .     S
O1384  C1385   1.446   .     S
C1385  H1387   1.097   .     S
C1385  H1388   1.099   .     S
C1385  C1386   1.560   .     S
C1386  H1389   1.099   .     S
C1386  H1390   1.105   .     S
C1392  H1394   1.096   .     S
C1392  H1393   1.098   .     S
C1395  H1397   1.103   .     S
C1395  H1396   1.103   .     S
C1398  H1399   1.097   .     S
C1398  C1421   1.563   .     S
C1400  H1401   1.096   .     S
C1400  H1402   1.097   .     S
C1404  H1406   1.098   .     S
C1404  H1405   1.100   .     S
C1407  H1408   1.103   .     S
C1407  H1409   1.106   .     S
C1411  H1413   1.096   .     S
C1411  H1412   1.101   .     S
C1411  H1414   1.100   .     S
C1415  H1416   1.104   .     S
C1415  H1417   1.096   .     S
C1418  H1420   1.103   .     S
C1418  H1419   1.101   .     S
C1421  H1424   1.100   .     S
C1421  H1423   1.106   .     S
C1421  C1422   1.563   .     S
C1422  H1425   1.096   .     S
C1422  H1426   1.101   .     S
C1427  H1428   1.105   .     S
C1427  H1429   1.090   .     S
C1430  H1431   1.109   .     S
C1430  H1432   1.098   .     S
O1434  H1436   0.971   .     S
C1444  C1445   1.435   .     S
C1444  H1467   1.095   .     S
C1444  C1458   1.405   .     S
C1445  C1450   1.443   .     S
C1445  C1447   1.409   .     S
C1446  C1447   1.486   .     S
C1446  C1463   1.390   .     S
C1446  C1449   1.471   .     S
C1447  C1448   1.447   .     S
C1448  C1453   1.384   .     S
C1448  C1454   1.412   .     S
C1449  C1452   1.421   .     S
C1449  C1473   1.557   .     S
C1450  C1451   1.348   .     S
C1450  C1460   1.370   .     S
C1451  C1454   1.425   .     S
C1451  C1459   1.424   .     S
C1452  H1465   1.085   .     S
C1452  C1453   1.396   .     S
C1453  C1456   1.420   .     S
C1454  C1455   1.417   .     S
C1455  H1466   1.091   .     S
C1455  C1457   1.361   .     S
C1456  C1457   1.454   .     S
C1456  H1464   1.095   .     S
C1457  C1474   1.467   .     S
C1458  H1470   1.090   .     S
C1458  C1463   1.391   .     S
C1459  N1461   1.397   .     S
C1459  H1468   1.089   .     S
C1460  H1469   1.090   .     S
C1460  N1461   1.432   .     S
N1461  H1462   1.013   .     S
C1463  C1471   1.531   .     S
C1471  H1483   1.102   .     S
C1471  H1484   1.106   .     S
C1471  C1472   1.575   .     S
C1472  C1473   1.563   .     S
C1472  H1482   1.092   .     S
C1472  H1481   1.098   .     S
C1473  H1480   1.105   .     S
C1473  O1515   1.466   .     S
C1474  C1475   1.542   .     S
C1474  H1479   1.103   .     S
C1474  H1478   1.096   .     S
C1475  H1477   1.095   .     S
C1475  H1795   1.093   .     S
C1475  C1476   1.530   .     S
C1476  H1833   1.094   .     S
C1476  H1834   1.102   .     S
C1476  C1557   1.569   .     S
C1485  C1491   1.451   .     S
C1485  C1507   1.426   .     S
C1485  C1486   1.417   .     S
C1486  C1487   1.425   .     S
C1486  C1488   1.417   .     S
C1487  C1492   1.378   .     S
C1487  C1497   1.411   .     S
C1488  C1489   1.400   .     S
C1488  C1493   1.381   .     S
C1489  C1490   1.447   .     S
C1489  C1503   1.415   .     S
C1490  C1545   1.563   .     S
C1490  C1491   1.422   .     S
C1491  C1892   1.517   .     S
C1492  C1498   1.445   .     S
C1492  C1494   1.428   .     S
C1493  C1494   1.465   .     S
C1493  C1496   1.490   .     S
C1494  C1501   1.419   .     S
C1495  H1502   1.086   .     S
C1495  N1506   1.356   .     S
C1495  C1501   1.447   .     S
C1496  N1506   1.418   .     S
C1496  C1504   1.506   .     S
C1497  C1505   1.392   .     S
C1497  O1891   1.364   .     S
C1498  C1516   1.415   .     S
C1498  C1499   1.395   .     S
C1499  C1792   1.434   .     S
C1499  C1500   1.426   .     S
C1500  C1501   1.419   .     S
C1500  C1861   1.566   .     S
C1503  C1504   1.410   .     S
C1503  C1885   1.615   .     S
C1504  C1509   1.584   .     S
C1505  C1529   1.547   .     S
C1505  C1507   1.359   .     S
C1507  H1508   1.083   .     S
C1509  H1513   1.091   .     S
C1509  H1514   1.102   .     S
C1509  C1510   1.555   .     S
C1510  H1512   1.102   .     S
C1510  H1511   1.097   .     S
C1510  O1515   1.458   .     S
C1516  C1517   1.410   .     S
C1516  O1891   1.386   .     S
C1517  H1528   1.091   .     S
C1517  C1518   1.431   .     S
C1518  C1792   1.407   .     S
C1518  C1519   1.547   .     S
C1519  C1520   1.510   .     S
C1519  H1526   1.093   .     S
C1519  H1527   1.106   .     S
C1520  H1525   1.097   .     S
C1520  H1524   1.099   .     S
C1520  C1521   1.525   .     S
C1521  H1523   1.100   .     S
C1521  H1794   1.104   .     S
C1521  C1522   1.498   .     S
C1522  O1916   1.213   .     S
C1522  O1915   1.326   .     S
C1529  H1543   1.109   .     S
C1529  H1544   1.100   .     S
C1529  C1530   1.529   .     S
C1530  H1541   1.102   .     S
C1530  H1542   1.099   .     S
C1530  C1531   1.600   .     S
C1531  H1539   1.097   .     S
C1531  O1532   1.460   .     S
C1531  H1540   1.098   .     S
O1532  C1533   1.465   .     S
C1533  C1534   1.559   .     S
C1533  H1538   1.102   .     S
C1533  C1881   1.565   .     S
C1534  C1918   1.506   .     S
C1534  H1536   1.095   .     S
C1534  H1537   1.101   .     S
C1535  C1918   1.418   .     S
C1535  C1579   1.435   .     S
C1535  C1755   1.367   .     S
C1545  H1552   1.101   .     S
C1545  C1546   1.551   .     S
C1545  H1551   1.099   .     S
C1546  C1885   1.545   .     S
C1546  C1547   1.582   .     S
C1546  H1550   1.098   .     S
C1547  H1549   1.104   .     S
C1547  C1554   1.551   .     S
C1547  H1548   1.101   .     S
C1553  C1557   1.535   .     S
C1553  H1790   1.097   .     S
C1553  S1555   1.858   .     S
C1553  H1778   1.100   .     S
C1554  H1556   1.102   .     S
C1554  S1555   1.853   .     S
C1554  H1791   1.099   .     S
C1557  C1558   1.562   .     S
C1557  H1562   1.106   .     S
C1558  O1832   1.213   .     S
C1558  C1559   1.508   .     S
C1559  H1560   1.096   .     S
C1559  H1561   1.104   .     S
C1559  C1826   1.558   .     S
C1563  C1568   1.446   .     S
C1563  C1583   1.434   .     S
C1563  C1565   1.461   .     S
C1564  C1578   1.400   .     S
C1564  C1567   1.442   .     S
C1564  C1565   1.467   .     S
C1565  C1566   1.385   .     S
C1566  C1571   1.412   .     S
C1566  C1572   1.404   .     S
C1567  C1755   1.464   .     S
C1567  C1570   1.418   .     S
C1568  C1569   1.391   .     S
C1568  C1575   1.372   .     S
C1569  C1574   1.395   .     S
C1569  C1572   1.374   .     S
C1570  C1838   1.574   .     S
C1570  C1571   1.401   .     S
C1571  H1584   1.094   .     S
C1572  H1585   1.097   .     S
C1573  C1578   1.440   .     S
C1573  H1588   1.087   .     S
C1573  C1583   1.418   .     S
C1574  C1589   1.564   .     S
C1574  N1576   1.406   .     S
C1575  N1576   1.409   .     S
C1575  H1586   1.092   .     S
N1576  H1577   1.010   .     S
C1578  C1579   1.402   .     S
C1579  C1881   1.534   .     S
C1580  C1581   1.336   .     S
C1580  C1918   1.448   .     S
C1580  H1587   1.093   .     S
C1581  H1919   1.084   .     S
C1581  C1582   1.396   .     S
C1582  H1760   1.091   .     S
C1582  C1755   1.408   .     S
C1583  C1841   1.539   .     S
C1589  H1603   1.102   .     S
C1589  H1604   1.104   .     S
C1589  C1590   1.574   .     S
C1590  H1602   1.101   .     S
C1590  C1591   1.531   .     S
C1590  H1800   1.106   .     S
C1591  H1601   1.107   .     S
C1591  C1592   1.568   .     S
C1591  C1903   1.521   .     S
C1592  C1594   1.600   .     S
C1592  O1593   1.240   .     S
C1594  C1879   1.517   .     S
C1594  H1600   1.104   .     S
C1594  C1595   1.550   .     S
C1595  C1596   1.556   .     S
C1595  H1598   1.098   .     S
C1595  H1599   1.105   .     S
C1596  C1876   1.556   .     S
C1596  H1597   1.095   .     S
C1596  C1608   1.586   .     S
C1605  C1608   1.425   .     S
C1605  C1613   1.452   .     S
C1605  C1606   1.403   .     S
C1606  C1607   1.458   .     S
C1606  C1625   1.433   .     S
C1607  C1623   1.446   .     S
C1607  C1611   1.410   .     S
C1608  C1610   1.453   .     S
C1609  C1611   1.436   .     S
C1609  H1634   1.087   .     S
C1609  N1622   1.307   .     S
C1610  C1623   1.433   .     S
C1610  C1879   1.573   .     S
C1611  C1620   1.380   .     S
C1612  C1618   1.428   .     S
C1612  C1613   1.419   .     S
C1612  C1615   1.380   .     S
C1613  C1614   1.447   .     S
C1614  C1876   1.610   .     S
C1614  C1617   1.422   .     S
C1615  C1616   1.369   .     S
C1615  H1636   1.091   .     S
C1616  C1617   1.460   .     S
C1616  H1619   1.093   .     S
C1617  C1638   1.604   .     S
C1618  C1625   1.345   .     S
C1618  H1635   1.092   .     S
C1620  C1621   1.436   .     S
C1620  C1626   1.508   .     S
C1621  C1624   1.417   .     S
C1621  C1896   1.540   .     S
N1622  C1625   1.392   .     S
C1623  C1624   1.412   .     S
C1624  H1637   1.087   .     S
C1626  H1632   1.095   .     S
C1626  C1627   1.566   .     S
C1626  H1633   1.099   .     S
C1627  C1628   1.543   .     S
C1627  C1896   1.546   .     S
C1627  H1631   1.103   .     S
C1628  H1630   1.105   .     S
C1628  O1646   1.453   .     S
C1628  H1629   1.095   .     S
C1638  C1639   1.550   .     S
C1638  H1645   1.098   .     S
C1638  H1914   1.100   .     S
C1639  H1643   1.099   .     S
C1639  H1644   1.097   .     S
C1639  C1640   1.498   .     S
C1640  H1642   1.108   .     S
C1640  H1752   1.100   .     S
C1640  H1641   1.100   .     S
O1646  C1647   1.462   .     S
C1647  H1656   1.100   .     S
C1647  H1657   1.092   .     S
C1647  C1648   1.541   .     S
C1648  H1655   1.103   .     S
C1648  C1649   1.624   .     S
C1648  H1654   1.095   .     S
C1649  C1650   1.566   .     S
C1649  H1653   1.097   .     S
C1649  C1888   1.534   .     S
C1650  H1651   1.096   .     S
C1650  H1652   1.106   .     S
C1650  C1670   1.497   .     S
C1658  C1686   1.446   .     S
C1658  C1660   1.400   .     S
C1658  C1659   1.421   .     S
C1659  C1664   1.439   .     S
C1659  C1667   1.450   .     S
C1660  C1851   1.546   .     S
C1660  C1665   1.435   .     S
C1661  H1924   1.083   .     S
C1661  C1680   1.403   .     S
C1661  C1662   1.396   .     S
C1662  C1663   1.440   .     S
C1662  H1923   1.083   .     S
C1663  H1922   1.089   .     S
C1663  C1921   1.418   .     S
C1664  C1666   1.441   .     S
C1664  C1668   1.432   .     S
C1665  C1666   1.361   .     S
C1665  H1688   1.092   .     S
C1666  C1671   1.384   .     S
C1667  C1676   1.436   .     S
C1667  C1673   1.421   .     S
C1668  C1669   1.395   .     S
C1668  C1675   1.461   .     S
C1669  C1670   1.443   .     S
C1669  H1689   1.088   .     S
C1670  C1671   1.374   .     S
C1671  C1888   1.468   .     S
H1672  C1920   1.101   .     S
C1673  C1674   1.432   .     S
C1673  C1677   1.454   .     S
C1674  C1686   1.447   .     S
C1674  C1680   1.437   .     S
C1675  C1690   1.539   .     S
C1675  C1676   1.407   .     S
C1676  C1679   1.386   .     S
C1677  C1678   1.423   .     S
C1677  C1682   1.423   .     S
C1678  C1683   1.529   .     S
C1678  C1679   1.371   .     S
C1679  H1687   1.083   .     S
C1680  C1681   1.465   .     S
C1681  C1682   1.430   .     S
C1681  C1921   1.449   .     S
C1682  C1873   1.605   .     S
C1683  C1694   1.510   .     S
C1683  H1684   1.105   .     S
C1683  H1685   1.099   .     S
C1686  C1920   1.569   .     S
C1690  H1693   1.100   .     S
C1690  H1798   1.104   .     S
C1690  C1691   1.563   .     S
C1691  H1797   1.099   .     S
C1691  H1692   1.102   .     S
C1691  H1872   1.102   .     S
C1694  H1799   1.099   .     S
C1694  O1695   1.398   .     S
C1694  C1873   1.576   .     S
O1695  C1696   1.387   .     S
C1696  H1703   1.100   .     S
C1696  C1697   1.583   .     S
C1696  H1704   1.106   .     S
C1697  H1701   1.095   .     S
C1697  H1702   1.105   .     S
C1697  C1698   1.560   .     S
C1698  H1700   1.100   .     S
C1698  H1699   1.105   .     S
C1698  C1726   1.531   .     S
C1705  C1757   1.414   .     S
C1705  H1779   1.088   .     S
C1705  C1706   1.430   .     S
C1706  C1784   1.634   .     S
C1706  C1709   1.448   .     S
C1707  C1712   1.392   .     S
C1707  C1709   1.401   .     S
C1707  C1708   1.433   .     S
C1708  S1711   1.763   .     S
C1708  C1753   1.417   .     S
C1709  C1710   1.349   .     S
C1710  S1711   1.779   .     S
C1710  C1756   1.440   .     S
C1712  C1713   1.428   .     S
C1712  C1899   1.562   .     S
C1713  C1754   1.439   .     S
C1713  C1714   1.553   .     S
C1714  C1717   1.524   .     S
C1714  H1716   1.098   .     S
C1714  H1715   1.100   .     S
C1717  C1813   1.504   .     S
C1717  O1847   1.467   .     S
C1717  H1823   1.096   .     S
C1718  C1719   1.597   .     S
C1718  C1814   1.555   .     S
C1718  C1815   1.618   .     S
C1718  H1816   1.102   .     S
C1719  H1751   1.094   .     S
C1719  H1796   1.098   .     S
C1719  C1845   1.626   .     S
C1720  H1884   1.097   .     S
C1720  H1750   1.104   .     S
C1720  H1749   1.100   .     S
C1720  C1721   1.545   .     S
C1721  H1747   1.110   .     S
C1721  C1744   1.602   .     S
C1721  H1748   1.101   .     S
C1722  C1723   1.455   .     S
C1722  C1727   1.476   .     S
C1722  C1762   1.477   .     S
C1723  C1770   1.627   .     S
C1723  C1725   1.442   .     S
C1724  C1725   1.342   .     S
C1724  C1726   1.433   .     S
C1724  C1763   1.405   .     S
C1725  H1743   1.090   .     S
C1726  C1765   1.375   .     S
C1727  C1908   1.517   .     S
C1727  C1728   1.424   .     S
C1728  C1731   1.375   .     S
C1728  C1729   1.323   .     S
C1729  C1761   1.393   .     S
C1729  C1730   1.381   .     S
C1730  N1732   1.371   .     S
C1730  C1835   1.386   .     S
C1731  N1732   1.468   .     S
C1731  C1733   1.570   .     S
N1732  H1742   1.004   .     S
C1733  H1740   1.102   .     S
C1733  H1741   1.096   .     S
C1733  C1734   1.605   .     S
C1734  H1746   1.097   .     S
C1734  C1908   1.602   .     S
C1734  C1735   1.517   .     S
C1735  C1736   1.568   .     S
C1735  H1739   1.101   .     S
C1735  H1745   1.096   .     S
C1736  H1738   1.104   .     S
C1736  H1737   1.097   .     S
C1736  H1848   1.096   .     S
C1744  C1768   1.475   .     S
C1744  C1835   1.437   .     S
C1753  C1754   1.449   .     S
C1753  C1803   1.525   .     S
C1754  C1806   1.554   .     S
C1756  H1759   1.086   .     S
C1756  C1757   1.440   .     S
C1757  H1758   1.089   .     S
C1761  C1762   1.434   .     S
C1761  C1768   1.415   .     S
C1762  C1763   1.455   .     S
C1763  C1764   1.395   .     S
C1764  C1767   1.376   .     S
C1764  C1766   1.454   .     S
C1765  C1766   1.335   .     S
C1765  C1911   1.522   .     S
C1766  O1837   1.376   .     S
C1767  H1769   1.091   .     S
C1767  C1768   1.439   .     S
C1770  H1802   1.095   .     S
C1770  C1771   1.521   .     S
C1770  H1777   1.100   .     S
C1771  H1776   1.098   .     S
C1771  C1772   1.584   .     S
C1771  H1801   1.101   .     S
C1772  H1773   1.096   .     S
C1772  H1775   1.108   .     S
C1772  H1774   1.101   .     S
H1780  C1920   1.102   .     S
O1781  C1921   1.350   .     S
O1781  C1782   1.445   .     S
C1782  H1789   1.093   .     S
C1782  H1788   1.098   .     S
C1782  C1783   1.668   .     S
C1783  C1784   1.543   .     S
C1783  H1786   1.102   .     S
C1783  H1787   1.098   .     S
C1784  C1899   1.585   .     S
C1784  H1785   1.100   .     S
C1792  H1793   1.083   .     S
C1803  H1808   1.107   .     S
C1803  H1807   1.104   .     S
C1803  C1804   1.553   .     S
C1804  C1824   1.598   .     S
C1804  C1805   1.533   .     S
C1804  H1809   1.098   .     S
C1805  C1825   1.514   .     S
C1805  H1810   1.103   .     S
C1805  C1806   1.582   .     S
C1806  H1811   1.097   .     S
C1806  H1812   1.096   .     S
C1813  H1817   1.094   .     S
C1813  H1818   1.105   .     S
C1813  C1815   1.598   .     S
C1814  H1819   1.105   .     S
C1814  H1820   1.102   .     S
C1814  O1847   1.432   .     S
C1815  H1821   1.101   .     S
C1815  H1822   1.094   .     S
C1824  H1827   1.101   .     S
C1824  H1828   1.099   .     S
C1824  C1826   1.501   .     S
C1825  C1826   1.632   .     S
C1825  H1829   1.104   .     S
C1825  H1830   1.100   .     S
C1826  H1831   1.101   .     S
C1835  H1836   1.097   .     S
O1837  C1845   1.451   .     S
C1838  H1840   1.097   .     S
C1838  H1839   1.104   .     S
C1838  O1865   1.464   .     S
C1841  H1842   1.096   .     S
C1841  H1843   1.098   .     S
C1841  H1844   1.098   .     S
C1845  C1911   1.556   .     S
C1845  H1846   1.096   .     S
C1849  C1920   1.502   .     S
C1849  C1850   1.552   .     S
C1849  H1854   1.100   .     S
C1849  C1851   1.545   .     S
C1850  C1853   1.590   .     S
C1850  H1856   1.098   .     S
C1850  H1855   1.096   .     S
C1851  H1857   1.100   .     S
C1851  C1852   1.551   .     S
C1852  H1858   1.100   .     S
C1852  H1859   1.104   .     S
C1852  C1853   1.587   .     S
C1853  H1860   1.108   .     S
C1853  C1867   1.568   .     S
C1861  H1863   1.098   .     S
C1861  H1864   1.097   .     S
C1861  H1862   1.095   .     S
O1865  C1866   1.480   .     S
C1866  H1869   1.102   .     S
C1866  C1867   1.581   .     S
C1866  H1868   1.101   .     S
C1867  H1870   1.095   .     S
C1867  H1871   1.099   .     S
C1873  H1874   1.102   .     S
C1873  H1875   1.096   .     S
C1876  H1877   1.102   .     S
C1876  H1878   1.099   .     S
C1879  C1902   1.580   .     S
C1879  H1880   1.098   .     S
C1881  H1883   1.104   .     S
C1881  H1882   1.105   .     S
C1885  H1886   1.100   .     S
C1885  H1887   1.100   .     S
C1888  H1889   1.100   .     S
C1888  H1890   1.102   .     S
C1892  H1893   1.107   .     S
C1892  H1894   1.107   .     S
C1892  H1895   1.091   .     S
C1896  H1897   1.103   .     S
C1896  H1898   1.101   .     S
C1899  H1900   1.098   .     S
C1899  H1901   1.092   .     S
C1902  C1903   1.566   .     S
C1902  H1905   1.093   .     S
C1902  H1904   1.097   .     S
C1903  H1906   1.096   .     S
C1903  H1907   1.096   .     S
C1908  H1909   1.103   .     S
C1908  H1910   1.101   .     S
C1911  H1912   1.103   .     S
C1911  H1913   1.102   .     S
O1915  H1917   0.971   .     S
C1925  C1926   1.406   .     S
C1925  H1948   1.086   .     S
C1925  C1939   1.427   .     S
C1926  C1928   1.422   .     S
C1926  C1931   1.406   .     S
C1927  C1928   1.463   .     S
C1927  C1930   1.486   .     S
C1927  C1944   1.426   .     S
C1928  C1929   1.465   .     S
C1929  C1935   1.400   .     S
C1929  C1934   1.423   .     S
C1930  C1933   1.422   .     S
C1930  C1954   1.542   .     S
C1931  C1941   1.349   .     S
C1931  C1932   1.367   .     S
C1932  C1935   1.415   .     S
C1932  C1940   1.378   .     S
C1933  H1946   1.091   .     S
C1933  C1934   1.431   .     S
C1934  C1937   1.320   .     S
C1935  C1936   1.438   .     S
C1936  H1947   1.088   .     S
C1936  C1938   1.462   .     S
C1937  H1945   1.086   .     S
C1937  C1938   1.361   .     S
C1938  C1955   1.553   .     S
C1939  C1944   1.400   .     S
C1939  H1951   1.087   .     S
C1940  N1942   1.387   .     S
C1940  H1949   1.082   .     S
C1941  N1942   1.452   .     S
C1941  H1950   1.084   .     S
N1942  H1943   1.009   .     S
C1944  C1952   1.555   .     S
C1952  H1965   1.097   .     S
C1952  H1964   1.094   .     S
C1952  C1953   1.613   .     S
C1953  H1963   1.107   .     S
C1953  H1962   1.099   .     S
C1953  C1954   1.553   .     S
C1954  O1996   1.484   .     S
C1954  H1961   1.103   .     S
C1955  H1959   1.093   .     S
C1955  H1960   1.101   .     S
C1955  C1956   1.615   .     S
C1956  C1957   1.536   .     S
C1956  H1958   1.103   .     S
C1956  H2276   1.100   .     S
C1957  H2314   1.102   .     S
C1957  C2038   1.504   .     S
C1957  H2315   1.107   .     S
C1966  C1967   1.365   .     S
C1966  C1988   1.420   .     S
C1966  C1972   1.448   .     S
C1967  C1969   1.402   .     S
C1967  C1968   1.441   .     S
C1968  C1978   1.357   .     S
C1968  C1973   1.432   .     S
C1969  C1974   1.432   .     S
C1969  C1970   1.411   .     S
C1970  C1971   1.394   .     S
C1970  C1984   1.425   .     S
C1971  C2026   1.523   .     S
C1971  C1972   1.406   .     S
C1972  C2373   1.593   .     S
C1973  C1975   1.375   .     S
C1973  C1979   1.444   .     S
C1974  C1977   1.443   .     S
C1974  C1975   1.446   .     S
C1975  C1982   1.394   .     S
C1976  C1982   1.377   .     S
C1976  H1983   1.098   .     S
C1976  N1987   1.338   .     S
C1977  N1987   1.317   .     S
C1977  C1985   1.426   .     S
C1978  C1986   1.436   .     S
C1978  O2372   1.379   .     S
C1979  C1980   1.386   .     S
C1979  C1997   1.460   .     S
C1980  C2273   1.451   .     S
C1980  C1981   1.436   .     S
C1981  C2342   1.523   .     S
C1981  C1982   1.456   .     S
C1984  C2366   1.516   .     S
C1984  C1985   1.424   .     S
C1985  C1990   1.495   .     S
C1986  C2010   1.568   .     S
C1986  C1988   1.367   .     S
C1988  H1989   1.088   .     S
C1990  C1991   1.549   .     S
C1990  H1995   1.100   .     S
C1990  H1994   1.097   .     S
C1991  H1993   1.102   .     S
C1991  O1996   1.416   .     S
C1991  H1992   1.099   .     S
C1997  C1998   1.429   .     S
C1997  O2372   1.344   .     S
C1998  H2009   1.093   .     S
C1998  C1999   1.394   .     S
C1999  C2000   1.515   .     S
C1999  C2273   1.429   .     S
C2000  H2008   1.093   .     S
C2000  C2001   1.535   .     S
C2000  H2007   1.095   .     S
C2001  C2002   1.603   .     S
C2001  H2005   1.100   .     S
C2001  H2006   1.098   .     S
C2002  H2004   1.103   .     S
C2002  C2003   1.528   .     S
C2002  H2275   1.097   .     S
C2003  O2397   1.211   .     S
C2003  O2396   1.315   .     S
C2010  C2011   1.543   .     S
C2010  H2024   1.100   .     S
C2010  H2025   1.101   .     S
C2011  H2023   1.096   .     S
C2011  H2022   1.107   .     S
C2011  C2012   1.568   .     S
C2012  O2013   1.427   .     S
C2012  H2021   1.098   .     S
C2012  H2020   1.108   .     S
O2013  C2014   1.465   .     S
C2014  H2019   1.091   .     S
C2014  C2362   1.623   .     S
C2014  C2015   1.475   .     S
C2015  H2017   1.103   .     S
C2015  C2399   1.576   .     S
C2015  H2018   1.104   .     S
C2016  C2236   1.433   .     S
C2016  C2060   1.430   .     S
C2016  C2399   1.479   .     S
C2026  H2032   1.102   .     S
C2026  C2027   1.567   .     S
C2026  H2033   1.107   .     S
C2027  H2031   1.100   .     S
C2027  C2028   1.521   .     S
C2027  C2366   1.512   .     S
C2028  C2035   1.555   .     S
C2028  H2030   1.096   .     S
C2028  H2029   1.101   .     S
C2034  H2259   1.101   .     S
C2034  H2271   1.101   .     S
C2034  S2036   1.863   .     S
C2034  C2038   1.532   .     S
C2035  H2272   1.103   .     S
C2035  H2037   1.106   .     S
C2035  S2036   1.872   .     S
C2038  C2039   1.572   .     S
C2038  H2043   1.101   .     S
C2039  C2040   1.515   .     S
C2039  O2313   1.224   .     S
C2040  H2041   1.102   .     S
C2040  C2307   1.570   .     S
C2040  H2042   1.097   .     S
C2044  C2046   1.468   .     S
C2044  C2049   1.451   .     S
C2044  C2064   1.424   .     S
C2045  C2059   1.383   .     S
C2045  C2048   1.441   .     S
C2045  C2046   1.441   .     S
C2046  C2047   1.441   .     S
C2047  C2053   1.402   .     S
C2047  C2052   1.429   .     S
C2048  C2051   1.435   .     S
C2048  C2236   1.425   .     S
C2049  C2050   1.362   .     S
C2049  C2056   1.447   .     S
C2050  C2053   1.361   .     S
C2050  C2055   1.387   .     S
C2051  C2052   1.407   .     S
C2051  C2319   1.515   .     S
C2052  H2065   1.093   .     S
C2053  H2066   1.084   .     S
C2054  C2064   1.428   .     S
C2054  C2059   1.391   .     S
C2054  H2069   1.086   .     S
C2055  C2070   1.538   .     S
C2055  N2057   1.469   .     S
C2056  N2057   1.412   .     S
C2056  H2067   1.085   .     S
N2057  H2058   1.012   .     S
C2059  C2060   1.503   .     S
C2060  C2362   1.562   .     S
C2061  C2062   1.382   .     S
C2061  H2068   1.088   .     S
C2061  C2399   1.439   .     S
C2062  C2063   1.421   .     S
C2062  H2400   1.094   .     S
C2063  C2236   1.424   .     S
C2063  H2241   1.091   .     S
C2064  C2322   1.533   .     S
C2070  H2085   1.107   .     S
C2070  H2084   1.091   .     S
C2070  C2071   1.573   .     S
C2071  C2072   1.579   .     S
C2071  H2281   1.100   .     S
C2071  H2083   1.103   .     S
C2072  C2073   1.539   .     S
C2072  H2082   1.099   .     S
C2072  C2384   1.524   .     S
C2073  O2074   1.202   .     S
C2073  C2075   1.528   .     S
C2075  C2360   1.555   .     S
C2075  C2076   1.526   .     S
C2075  H2081   1.101   .     S
C2076  H2079   1.098   .     S
C2076  H2080   1.105   .     S
C2076  C2077   1.567   .     S
C2077  H2078   1.104   .     S
C2077  C2357   1.514   .     S
C2077  C2089   1.550   .     S
C2086  C2094   1.474   .     S
C2086  C2087   1.421   .     S
C2086  C2089   1.441   .     S
C2087  C2088   1.376   .     S
C2087  C2106   1.418   .     S
C2088  C2092   1.408   .     S
C2088  C2104   1.456   .     S
C2089  C2091   1.410   .     S
C2090  N2103   1.347   .     S
C2090  H2115   1.096   .     S
C2090  C2092   1.332   .     S
C2091  C2104   1.386   .     S
C2091  C2360   1.583   .     S
C2092  C2101   1.413   .     S
C2093  C2094   1.384   .     S
C2093  C2096   1.420   .     S
C2093  C2099   1.429   .     S
C2094  C2095   1.462   .     S
C2095  C2357   1.550   .     S
C2095  C2098   1.435   .     S
C2096  C2097   1.365   .     S
C2096  H2117   1.089   .     S
C2097  C2098   1.429   .     S
C2097  H2100   1.083   .     S
C2098  C2119   1.541   .     S
C2099  H2116   1.092   .     S
C2099  C2106   1.417   .     S
C2101  C2102   1.382   .     S
C2101  C2107   1.489   .     S
C2102  C2377   1.554   .     S
C2102  C2105   1.392   .     S
N2103  C2106   1.361   .     S
C2104  C2105   1.430   .     S
C2105  H2118   1.091   .     S
C2107  H2113   1.101   .     S
C2107  H2114   1.100   .     S
C2107  C2108   1.591   .     S
C2108  C2377   1.587   .     S
C2108  H2112   1.102   .     S
C2108  C2109   1.618   .     S
C2109  O2127   1.448   .     S
C2109  H2110   1.104   .     S
C2109  H2111   1.097   .     S
C2119  H2395   1.099   .     S
C2119  H2126   1.101   .     S
C2119  C2120   1.557   .     S
C2120  H2125   1.104   .     S
C2120  H2124   1.104   .     S
C2120  C2121   1.594   .     S
C2121  H2233   1.097   .     S
C2121  H2122   1.098   .     S
C2121  H2123   1.103   .     S
O2127  C2128   1.447   .     S
C2128  C2129   1.566   .     S
C2128  H2137   1.105   .     S
C2128  H2138   1.101   .     S
C2129  H2135   1.096   .     S
C2129  H2136   1.103   .     S
C2129  C2130   1.509   .     S
C2130  C2131   1.544   .     S
C2130  C2369   1.502   .     S
C2130  H2134   1.103   .     S
C2131  H2132   1.097   .     S
C2131  H2133   1.095   .     S
C2131  C2151   1.560   .     S
C2139  C2141   1.436   .     S
C2139  C2140   1.465   .     S
C2139  C2167   1.426   .     S
C2140  C2145   1.454   .     S
C2140  C2148   1.429   .     S
C2141  C2332   1.480   .     S
C2141  C2146   1.451   .     S
C2142  H2405   1.087   .     S
C2142  C2143   1.385   .     S
C2142  C2161   1.414   .     S
C2143  H2404   1.088   .     S
C2143  C2144   1.434   .     S
C2144  H2403   1.088   .     S
C2144  C2402   1.435   .     S
C2145  C2147   1.384   .     S
C2145  C2149   1.419   .     S
C2146  C2147   1.443   .     S
C2146  H2169   1.092   .     S
C2147  C2152   1.398   .     S
C2148  C2154   1.431   .     S
C2148  C2157   1.412   .     S
C2149  C2150   1.396   .     S
C2149  C2156   1.434   .     S
C2150  C2151   1.410   .     S
C2150  H2170   1.084   .     S
C2151  C2152   1.406   .     S
C2152  C2369   1.498   .     S
H2153  C2401   1.092   .     S
C2154  C2155   1.465   .     S
C2154  C2158   1.406   .     S
C2155  C2167   1.464   .     S
C2155  C2161   1.426   .     S
C2156  C2171   1.555   .     S
C2156  C2157   1.450   .     S
C2157  C2160   1.414   .     S
C2158  C2163   1.448   .     S
C2158  C2159   1.444   .     S
C2159  C2164   1.541   .     S
C2159  C2160   1.414   .     S
C2160  H2168   1.094   .     S
C2161  C2162   1.388   .     S
C2162  C2163   1.403   .     S
C2162  C2402   1.491   .     S
C2163  C2354   1.637   .     S
C2164  H2165   1.099   .     S
C2164  H2166   1.099   .     S
C2164  C2175   1.555   .     S
C2167  C2401   1.593   .     S
C2171  H2174   1.103   .     S
C2171  C2172   1.522   .     S
C2171  H2279   1.107   .     S
C2172  H2353   1.098   .     S
C2172  H2278   1.097   .     S
C2172  H2173   1.107   .     S
C2175  H2280   1.109   .     S
C2175  O2176   1.393   .     S
C2175  C2354   1.478   .     S
O2176  C2177   1.463   .     S
C2177  C2178   1.544   .     S
C2177  H2184   1.102   .     S
C2177  H2185   1.099   .     S
C2178  H2182   1.106   .     S
C2178  H2183   1.093   .     S
C2178  C2179   1.549   .     S
C2179  H2181   1.099   .     S
C2179  H2180   1.106   .     S
C2179  C2207   1.532   .     S
C2186  C2238   1.434   .     S
C2186  C2187   1.425   .     S
C2186  H2260   1.085   .     S
C2187  C2190   1.411   .     S
C2187  C2265   1.593   .     S
C2188  C2189   1.371   .     S
C2188  C2193   1.430   .     S
C2188  C2190   1.373   .     S
C2189  S2192   1.790   .     S
C2189  C2234   1.422   .     S
C2190  C2191   1.343   .     S
C2191  S2192   1.729   .     S
C2191  C2237   1.387   .     S
C2193  C2194   1.401   .     S
C2193  C2380   1.509   .     S
C2194  C2235   1.410   .     S
C2194  C2195   1.558   .     S
C2195  H2197   1.097   .     S
C2195  H2196   1.093   .     S
C2195  C2198   1.533   .     S
C2198  C2294   1.598   .     S
C2198  H2304   1.100   .     S
C2198  O2328   1.465   .     S
C2199  C2200   1.560   .     S
C2199  C2296   1.551   .     S
C2199  H2297   1.096   .     S
C2199  C2295   1.575   .     S
C2200  H2232   1.101   .     S
C2200  C2326   1.601   .     S
C2200  H2277   1.099   .     S
C2201  C2202   1.550   .     S
C2201  H2365   1.094   .     S
C2201  H2231   1.107   .     S
C2201  H2230   1.102   .     S
C2202  H2229   1.099   .     S
C2202  H2228   1.105   .     S
C2202  C2225   1.509   .     S
C2203  C2204   1.456   .     S
C2203  C2243   1.485   .     S
C2203  C2208   1.439   .     S
C2204  C2206   1.429   .     S
C2204  C2251   1.540   .     S
C2205  C2206   1.471   .     S
C2205  C2207   1.448   .     S
C2205  C2244   1.405   .     S
C2206  H2224   1.088   .     S
C2207  C2246   1.403   .     S
C2208  C2209   1.420   .     S
C2208  C2389   1.561   .     S
C2209  C2212   1.343   .     S
C2209  C2210   1.403   .     S
C2210  C2242   1.310   .     S
C2210  C2211   1.374   .     S
C2211  C2316   1.405   .     S
C2211  N2213   1.409   .     S
C2212  C2214   1.477   .     S
C2212  N2213   1.455   .     S
N2213  H2223   1.009   .     S
C2214  H2221   1.096   .     S
C2214  C2215   1.573   .     S
C2214  H2222   1.096   .     S
C2215  C2216   1.568   .     S
C2215  C2389   1.548   .     S
C2215  H2227   1.112   .     S
C2216  H2226   1.102   .     S
C2216  H2220   1.101   .     S
C2216  C2217   1.557   .     S
C2217  H2219   1.096   .     S
C2217  H2329   1.099   .     S
C2217  H2218   1.094   .     S
C2225  C2316   1.407   .     S
C2225  C2249   1.468   .     S
C2234  C2284   1.561   .     S
C2234  C2235   1.433   .     S
C2235  C2287   1.510   .     S
C2237  C2238   1.422   .     S
C2237  H2240   1.089   .     S
C2238  H2239   1.085   .     S
C2242  C2249   1.447   .     S
C2242  C2243   1.394   .     S
C2243  C2244   1.421   .     S
C2244  C2245   1.444   .     S
C2245  C2247   1.419   .     S
C2245  C2248   1.456   .     S
C2246  C2247   1.393   .     S
C2246  C2392   1.555   .     S
C2247  O2318   1.400   .     S
C2248  C2249   1.407   .     S
C2248  H2250   1.093   .     S
C2251  H2258   1.102   .     S
C2251  H2283   1.104   .     S
C2251  C2252   1.572   .     S
C2252  H2257   1.099   .     S
C2252  H2282   1.099   .     S
C2252  C2253   1.600   .     S
C2253  H2254   1.093   .     S
C2253  H2255   1.107   .     S
C2253  H2256   1.099   .     S
H2261  C2401   1.096   .     S
O2262  C2402   1.359   .     S
O2262  C2263   1.483   .     S
C2263  C2264   1.537   .     S
C2263  H2270   1.101   .     S
C2263  H2269   1.098   .     S
C2264  H2268   1.100   .     S
C2264  H2267   1.103   .     S
C2264  C2265   1.568   .     S
C2265  H2266   1.093   .     S
C2265  C2380   1.578   .     S
C2273  H2274   1.094   .     S
C2284  H2289   1.097   .     S
C2284  H2288   1.097   .     S
C2284  C2285   1.476   .     S
C2285  H2290   1.095   .     S
C2285  C2305   1.557   .     S
C2285  C2286   1.567   .     S
C2286  C2287   1.560   .     S
C2286  H2291   1.100   .     S
C2286  C2306   1.614   .     S
C2287  H2292   1.094   .     S
C2287  H2293   1.098   .     S
C2294  H2299   1.089   .     S
C2294  C2296   1.604   .     S
C2294  H2298   1.108   .     S
C2295  H2301   1.100   .     S
C2295  O2328   1.360   .     S
C2295  H2300   1.099   .     S
C2296  H2303   1.096   .     S
C2296  H2302   1.109   .     S
C2305  H2308   1.100   .     S
C2305  H2309   1.092   .     S
C2305  C2307   1.536   .     S
C2306  C2307   1.645   .     S
C2306  H2311   1.107   .     S
C2306  H2310   1.097   .     S
C2307  H2312   1.098   .     S
C2316  H2317   1.099   .     S
O2318  C2326   1.464   .     S
C2319  O2346   1.469   .     S
C2319  H2321   1.098   .     S
C2319  H2320   1.104   .     S
C2322  H2324   1.104   .     S
C2322  H2323   1.103   .     S
C2322  H2325   1.099   .     S
C2326  C2392   1.539   .     S
C2326  H2327   1.103   .     S
C2330  C2331   1.539   .     S
C2330  C2401   1.584   .     S
C2330  H2335   1.107   .     S
C2330  C2332   1.610   .     S
C2331  H2337   1.103   .     S
C2331  H2336   1.095   .     S
C2331  C2334   1.581   .     S
C2332  H2338   1.104   .     S
C2332  C2333   1.519   .     S
C2333  C2334   1.575   .     S
C2333  H2340   1.102   .     S
C2333  H2339   1.105   .     S
C2334  H2341   1.106   .     S
C2334  C2348   1.639   .     S
C2342  H2344   1.101   .     S
C2342  H2343   1.101   .     S
C2342  H2345   1.101   .     S
O2346  C2347   1.439   .     S
C2347  H2349   1.107   .     S
C2347  H2350   1.103   .     S
C2347  C2348   1.538   .     S
C2348  H2351   1.096   .     S
C2348  H2352   1.104   .     S
C2354  H2355   1.095   .     S
C2354  H2356   1.107   .     S
C2357  H2358   1.096   .     S
C2357  H2359   1.104   .     S
C2360  H2361   1.094   .     S
C2360  C2383   1.621   .     S
C2362  H2363   1.109   .     S
C2362  H2364   1.099   .     S
C2366  H2368   1.098   .     S
C2366  H2367   1.095   .     S
C2369  H2370   1.100   .     S
C2369  H2371   1.100   .     S
C2373  H2374   1.105   .     S
C2373  H2376   1.098   .     S
C2373  H2375   1.098   .     S
C2377  H2379   1.100   .     S
C2377  H2378   1.096   .     S
C2380  H2381   1.099   .     S
C2380  H2382   1.099   .     S
C2383  C2384   1.514   .     S
C2383  H2385   1.098   .     S
C2383  H2386   1.107   .     S
C2384  H2387   1.104   .     S
C2384  H2388   1.097   .     S
C2389  H2390   1.091   .     S
C2389  H2391   1.098   .     S
C2392  H2393   1.108   .     S
C2392  H2394   1.097   .     S
O2396  H2398   0.975   .     S
C2406  C2407   1.408   .     S
C2406  C2420   1.394   .     S
C2406  H2429   1.089   .     S
C2407  C2409   1.404   .     S
C2407  C2412   1.438   .     S
C2408  C2411   1.472   .     S
C2408  C2409   1.375   .     S
C2408  C2425   1.418   .     S
C2409  C2410   1.433   .     S
C2410  C2415   1.410   .     S
C2410  C2416   1.428   .     S
C2411  C2414   1.415   .     S
C2411  C2435   1.605   .     S
C2412  C2413   1.388   .     S
C2412  C2422   1.366   .     S
C2413  C2421   1.415   .     S
C2413  C2416   1.447   .     S
C2414  H2427   1.086   .     S
C2414  C2415   1.407   .     S
C2415  C2418   1.465   .     S
C2416  C2417   1.340   .     S
C2417  C2419   1.407   .     S
C2417  H2428   1.092   .     S
C2418  H2426   1.086   .     S
C2418  C2419   1.360   .     S
C2419  C2436   1.500   .     S
C2420  C2425   1.395   .     S
C2420  H2432   1.093   .     S
C2421  H2430   1.087   .     S
C2421  N2423   1.417   .     S
C2422  H2431   1.086   .     S
C2422  N2423   1.415   .     S
N2423  H2424   1.009   .     S
C2425  C2433   1.534   .     S
C2433  C2434   1.538   .     S
C2433  H2445   1.101   .     S
C2433  H2446   1.102   .     S
C2434  H2444   1.101   .     S
C2434  H2443   1.106   .     S
C2434  C2435   1.541   .     S
C2435  H2442   1.100   .     S
C2435  O2477   1.444   .     S
C2436  C2437   1.504   .     S
C2436  H2440   1.091   .     S
C2436  H2441   1.097   .     S
C2437  H2757   1.102   .     S
C2437  C2438   1.590   .     S
C2437  H2439   1.101   .     S
C2438  C2519   1.564   .     S
C2438  H2795   1.093   .     S
C2438  H2796   1.098   .     S
C2447  C2453   1.388   .     S
C2447  C2469   1.385   .     S
C2447  C2448   1.411   .     S
C2448  C2450   1.466   .     S
C2448  C2449   1.450   .     S
C2449  C2454   1.412   .     S
C2449  C2459   1.417   .     S
C2450  C2451   1.406   .     S
C2450  C2455   1.357   .     S
C2451  C2452   1.449   .     S
C2451  C2465   1.442   .     S
C2452  C2453   1.454   .     S
C2452  C2507   1.577   .     S
C2453  C2854   1.565   .     S
C2454  C2460   1.414   .     S
C2454  C2456   1.425   .     S
C2455  C2458   1.428   .     S
C2455  C2456   1.475   .     S
C2456  C2463   1.416   .     S
C2457  C2463   1.402   .     S
C2457  H2464   1.094   .     S
C2457  N2468   1.331   .     S
C2458  N2468   1.359   .     S
C2458  C2466   1.410   .     S
C2459  C2467   1.397   .     S
C2459  O2853   1.378   .     S
C2460  C2461   1.455   .     S
C2460  C2478   1.377   .     S
C2461  C2462   1.480   .     S
C2461  C2754   1.419   .     S
C2462  C2463   1.393   .     S
C2462  C2823   1.600   .     S
C2465  C2847   1.594   .     S
C2465  C2466   1.475   .     S
C2466  C2471   1.582   .     S
C2467  C2491   1.587   .     S
C2467  C2469   1.405   .     S
C2469  H2470   1.091   .     S
C2471  C2472   1.575   .     S
C2471  H2476   1.101   .     S
C2471  H2475   1.096   .     S
C2472  H2473   1.107   .     S
C2472  H2474   1.096   .     S
C2472  O2477   1.403   .     S
C2478  C2479   1.433   .     S
C2478  O2853   1.385   .     S
C2479  C2480   1.358   .     S
C2479  H2490   1.089   .     S
C2480  C2481   1.441   .     S
C2480  C2754   1.421   .     S
C2481  H2489   1.103   .     S
C2481  C2482   1.572   .     S
C2481  H2488   1.094   .     S
C2482  H2486   1.105   .     S
C2482  H2487   1.092   .     S
C2482  C2483   1.558   .     S
C2483  H2485   1.100   .     S
C2483  C2484   1.610   .     S
C2483  H2756   1.101   .     S
C2484  O2877   1.319   .     S
C2484  O2878   1.215   .     S
C2491  H2505   1.098   .     S
C2491  C2492   1.573   .     S
C2491  H2506   1.098   .     S
C2492  C2493   1.581   .     S
C2492  H2503   1.102   .     S
C2492  H2504   1.097   .     S
C2493  O2494   1.491   .     S
C2493  H2501   1.109   .     S
C2493  H2502   1.095   .     S
O2494  C2495   1.429   .     S
C2495  C2496   1.559   .     S
C2495  H2500   1.101   .     S
C2495  C2843   1.520   .     S
C2496  H2498   1.100   .     S
C2496  C2880   1.566   .     S
C2496  H2499   1.099   .     S
C2497  C2880   1.442   .     S
C2497  C2717   1.427   .     S
C2497  C2541   1.439   .     S
C2507  H2514   1.097   .     S
C2507  C2508   1.557   .     S
C2507  H2513   1.100   .     S
C2508  H2512   1.101   .     S
C2508  C2847   1.588   .     S
C2508  C2509   1.595   .     S
C2509  H2510   1.096   .     S
C2509  C2516   1.581   .     S
C2509  H2511   1.095   .     S
C2515  H2752   1.097   .     S
C2515  S2517   1.883   .     S
C2515  C2519   1.629   .     S
C2515  H2740   1.101   .     S
C2516  S2517   1.824   .     S
C2516  H2753   1.097   .     S
C2516  H2518   1.102   .     S
C2519  H2524   1.100   .     S
C2519  C2520   1.528   .     S
C2520  C2521   1.505   .     S
C2520  O2794   1.227   .     S
C2521  C2788   1.600   .     S
C2521  H2522   1.091   .     S
C2521  H2523   1.104   .     S
C2525  C2530   1.450   .     S
C2525  C2527   1.492   .     S
C2525  C2545   1.423   .     S
C2526  C2529   1.375   .     S
C2526  C2527   1.393   .     S
C2526  C2540   1.443   .     S
C2527  C2528   1.409   .     S
C2528  C2533   1.371   .     S
C2528  C2534   1.389   .     S
C2529  C2532   1.412   .     S
C2529  C2717   1.453   .     S
C2530  C2537   1.415   .     S
C2530  C2531   1.365   .     S
C2531  C2534   1.407   .     S
C2531  C2536   1.389   .     S
C2532  C2533   1.424   .     S
C2532  C2800   1.520   .     S
C2533  H2546   1.095   .     S
C2534  H2547   1.091   .     S
C2535  C2540   1.459   .     S
C2535  H2550   1.088   .     S
C2535  C2545   1.482   .     S
C2536  C2551   1.564   .     S
C2536  N2538   1.396   .     S
C2537  N2538   1.456   .     S
C2537  H2548   1.092   .     S
N2538  H2539   1.010   .     S
C2540  C2541   1.429   .     S
C2541  C2843   1.559   .     S
C2542  C2543   1.382   .     S
C2542  C2880   1.379   .     S
C2542  H2549   1.088   .     S
C2543  C2544   1.424   .     S
C2543  H2881   1.088   .     S
C2544  H2722   1.091   .     S
C2544  C2717   1.464   .     S
C2545  C2803   1.552   .     S
C2551  H2566   1.093   .     S
C2551  H2565   1.104   .     S
C2551  C2552   1.542   .     S
C2552  H2564   1.099   .     S
C2552  C2553   1.496   .     S
C2552  H2762   1.099   .     S
C2553  H2563   1.107   .     S
C2553  C2554   1.512   .     S
C2553  C2865   1.527   .     S
C2554  C2556   1.547   .     S
C2554  O2555   1.229   .     S
C2556  C2557   1.493   .     S
C2556  H2562   1.099   .     S
C2556  C2841   1.532   .     S
C2557  C2558   1.577   .     S
C2557  H2561   1.100   .     S
C2557  H2560   1.107   .     S
C2558  H2559   1.100   .     S
C2558  C2838   1.564   .     S
C2558  C2570   1.531   .     S
C2567  C2575   1.457   .     S
C2567  C2570   1.450   .     S
C2567  C2568   1.397   .     S
C2568  C2587   1.404   .     S
C2568  C2569   1.442   .     S
C2569  C2573   1.480   .     S
C2569  C2585   1.417   .     S
C2570  C2572   1.411   .     S
C2571  H2596   1.090   .     S
C2571  N2584   1.363   .     S
C2571  C2573   1.402   .     S
C2572  C2841   1.553   .     S
C2572  C2585   1.443   .     S
C2573  C2582   1.354   .     S
C2574  C2577   1.345   .     S
C2574  C2575   1.411   .     S
C2574  C2580   1.409   .     S
C2575  C2576   1.424   .     S
C2576  C2838   1.514   .     S
C2576  C2579   1.394   .     S
C2577  H2598   1.089   .     S
C2577  C2578   1.396   .     S
C2578  C2579   1.436   .     S
C2578  H2581   1.088   .     S
C2579  C2600   1.512   .     S
C2580  H2597   1.088   .     S
C2580  C2587   1.453   .     S
C2582  C2588   1.584   .     S
C2582  C2583   1.378   .     S
C2583  C2586   1.434   .     S
C2583  C2858   1.554   .     S
N2584  C2587   1.357   .     S
C2585  C2586   1.438   .     S
C2586  H2599   1.098   .     S
C2588  H2594   1.098   .     S
C2588  C2589   1.540   .     S
C2588  H2595   1.094   .     S
C2589  C2858   1.629   .     S
C2589  C2590   1.585   .     S
C2589  H2593   1.104   .     S
C2590  O2608   1.486   .     S
C2590  H2592   1.107   .     S
C2590  H2591   1.097   .     S
C2600  H2607   1.100   .     S
C2600  H2876   1.102   .     S
C2600  C2601   1.589   .     S
C2601  H2606   1.101   .     S
C2601  C2602   1.569   .     S
C2601  H2605   1.100   .     S
C2602  H2603   1.100   .     S
C2602  H2714   1.102   .     S
C2602  H2604   1.099   .     S
O2608  C2609   1.433   .     S
C2609  H2618   1.103   .     S
C2609  H2619   1.098   .     S
C2609  C2610   1.526   .     S
C2610  H2616   1.105   .     S
C2610  H2617   1.101   .     S
C2610  C2611   1.558   .     S
C2611  H2615   1.097   .     S
C2611  C2850   1.559   .     S
C2611  C2612   1.606   .     S
C2612  H2613   1.096   .     S
C2612  H2614   1.094   .     S
C2612  C2632   1.488   .     S
C2620  C2648   1.457   .     S
C2620  C2622   1.456   .     S
C2620  C2621   1.421   .     S
C2621  C2626   1.457   .     S
C2621  C2629   1.398   .     S
C2622  C2813   1.529   .     S
C2622  C2627   1.373   .     S
C2623  H2886   1.085   .     S
C2623  C2624   1.406   .     S
C2623  C2642   1.382   .     S
C2624  C2625   1.388   .     S
C2624  H2885   1.087   .     S
C2625  C2883   1.417   .     S
C2625  H2884   1.092   .     S
C2626  C2628   1.401   .     S
C2626  C2630   1.472   .     S
C2627  C2628   1.429   .     S
C2627  H2650   1.085   .     S
C2628  C2633   1.446   .     S
C2629  C2635   1.450   .     S
C2629  C2638   1.417   .     S
C2630  C2631   1.402   .     S
C2630  C2637   1.424   .     S
C2631  C2632   1.450   .     S
C2631  H2651   1.088   .     S
C2632  C2633   1.395   .     S
C2633  C2850   1.553   .     S
H2634  C2882   1.101   .     S
C2635  C2639   1.441   .     S
C2635  C2636   1.426   .     S
C2636  C2642   1.451   .     S
C2636  C2648   1.423   .     S
C2637  C2638   1.427   .     S
C2637  C2652   1.542   .     S
C2638  C2641   1.410   .     S
C2639  C2640   1.452   .     S
C2639  C2644   1.391   .     S
C2640  C2645   1.528   .     S
C2640  C2641   1.412   .     S
C2641  H2649   1.096   .     S
C2642  C2643   1.434   .     S
C2643  C2644   1.479   .     S
C2643  C2883   1.443   .     S
C2644  C2835   1.579   .     S
C2645  C2656   1.521   .     S
C2645  H2646   1.101   .     S
C2645  H2647   1.101   .     S
C2648  C2882   1.577   .     S
C2652  C2653   1.581   .     S
C2652  H2760   1.098   .     S
C2652  H2655   1.099   .     S
C2653  H2654   1.102   .     S
C2653  H2834   1.097   .     S
C2653  H2759   1.100   .     S
C2656  H2761   1.102   .     S
C2656  O2657   1.409   .     S
C2656  C2835   1.529   .     S
O2657  C2658   1.427   .     S
C2658  H2666   1.101   .     S
C2658  H2665   1.108   .     S
C2658  C2659   1.562   .     S
C2659  C2660   1.561   .     S
C2659  H2663   1.099   .     S
C2659  H2664   1.108   .     S
C2660  H2661   1.104   .     S
C2660  H2662   1.100   .     S
C2660  C2688   1.561   .     S
C2667  C2719   1.420   .     S
C2667  H2741   1.090   .     S
C2667  C2668   1.396   .     S
C2668  C2746   1.523   .     S
C2668  C2671   1.402   .     S
C2669  C2671   1.368   .     S
C2669  C2670   1.376   .     S
C2669  C2674   1.381   .     S
C2670  C2715   1.377   .     S
C2670  S2673   1.827   .     S
C2671  C2672   1.401   .     S
C2672  S2673   1.754   .     S
C2672  C2718   1.427   .     S
C2674  C2675   1.419   .     S
C2674  C2861   1.548   .     S
C2675  C2676   1.549   .     S
C2675  C2716   1.411   .     S
C2676  H2677   1.098   .     S
C2676  H2678   1.105   .     S
C2676  C2679   1.559   .     S
C2679  O2809   1.441   .     S
C2679  C2775   1.591   .     S
C2679  H2785   1.105   .     S
C2680  H2778   1.102   .     S
C2680  C2776   1.591   .     S
C2680  C2777   1.516   .     S
C2680  C2681   1.569   .     S
C2681  H2758   1.104   .     S
C2681  H2713   1.096   .     S
C2681  C2807   1.534   .     S
C2682  C2683   1.566   .     S
C2682  H2846   1.107   .     S
C2682  H2711   1.101   .     S
C2682  H2712   1.101   .     S
C2683  C2706   1.542   .     S
C2683  H2710   1.103   .     S
C2683  H2709   1.104   .     S
C2684  C2685   1.409   .     S
C2684  C2724   1.442   .     S
C2684  C2689   1.470   .     S
C2685  C2732   1.577   .     S
C2685  C2687   1.451   .     S
C2686  C2725   1.409   .     S
C2686  C2687   1.444   .     S
C2686  C2688   1.422   .     S
C2687  H2705   1.088   .     S
C2688  C2727   1.379   .     S
C2689  C2870   1.574   .     S
C2689  C2690   1.398   .     S
C2690  C2691   1.385   .     S
C2690  C2693   1.388   .     S
C2691  C2692   1.377   .     S
C2691  C2723   1.361   .     S
C2692  C2797   1.398   .     S
C2692  N2694   1.369   .     S
C2693  N2694   1.471   .     S
C2693  C2695   1.448   .     S
N2694  H2704   1.015   .     S
C2695  H2703   1.101   .     S
C2695  C2696   1.617   .     S
C2695  H2702   1.095   .     S
C2696  C2870   1.666   .     S
C2696  C2697   1.575   .     S
C2696  H2708   1.097   .     S
C2697  C2698   1.459   .     S
C2697  H2707   1.099   .     S
C2697  H2701   1.105   .     S
C2698  H2810   1.098   .     S
C2698  H2700   1.103   .     S
C2698  H2699   1.097   .     S
C2706  C2797   1.446   .     S
C2706  C2730   1.444   .     S
C2715  C2716   1.447   .     S
C2715  C2765   1.505   .     S
C2716  C2768   1.618   .     S
C2718  H2721   1.091   .     S
C2718  C2719   1.412   .     S
C2719  H2720   1.082   .     S
C2723  C2724   1.460   .     S
C2723  C2730   1.417   .     S
C2724  C2725   1.434   .     S
C2725  C2726   1.447   .     S
C2726  C2728   1.367   .     S
C2726  C2729   1.388   .     S
C2727  C2728   1.391   .     S
C2727  C2873   1.510   .     S
C2728  O2799   1.371   .     S
C2729  C2730   1.460   .     S
C2729  H2731   1.088   .     S
C2732  H2764   1.097   .     S
C2732  H2739   1.097   .     S
C2732  C2733   1.570   .     S
C2733  H2763   1.096   .     S
C2733  H2738   1.102   .     S
C2733  C2734   1.552   .     S
C2734  H2735   1.105   .     S
C2734  H2737   1.093   .     S
C2734  H2736   1.098   .     S
H2742  C2882   1.104   .     S
O2743  C2744   1.437   .     S
O2743  C2883   1.452   .     S
C2744  H2750   1.094   .     S
C2744  H2751   1.104   .     S
C2744  C2745   1.588   .     S
C2745  H2748   1.101   .     S
C2745  H2749   1.095   .     S
C2745  C2746   1.555   .     S
C2746  C2861   1.626   .     S
C2746  H2747   1.103   .     S
C2754  H2755   1.091   .     S
C2765  H2770   1.100   .     S
C2765  H2769   1.095   .     S
C2765  C2766   1.514   .     S
C2766  H2771   1.102   .     S
C2766  C2786   1.579   .     S
C2766  C2767   1.548   .     S
C2767  H2772   1.103   .     S
C2767  C2787   1.539   .     S
C2767  C2768   1.539   .     S
C2768  H2774   1.096   .     S
C2768  H2773   1.101   .     S
C2775  H2779   1.097   .     S
C2775  H2780   1.102   .     S
C2775  C2777   1.523   .     S
C2776  H2782   1.095   .     S
C2776  O2809   1.431   .     S
C2776  H2781   1.098   .     S
C2777  H2784   1.096   .     S
C2777  H2783   1.100   .     S
C2786  H2790   1.104   .     S
C2786  C2788   1.578   .     S
C2786  H2789   1.107   .     S
C2787  H2792   1.093   .     S
C2787  H2791   1.104   .     S
C2787  C2788   1.565   .     S
C2788  H2793   1.097   .     S
C2797  H2798   1.093   .     S
O2799  C2807   1.434   .     S
C2800  O2827   1.472   .     S
C2800  H2801   1.100   .     S
C2800  H2802   1.101   .     S
C2803  H2806   1.107   .     S
C2803  H2804   1.102   .     S
C2803  H2805   1.104   .     S
C2807  C2873   1.589   .     S
C2807  H2808   1.097   .     S
C2811  C2812   1.518   .     S
C2811  H2816   1.099   .     S
C2811  C2882   1.492   .     S
C2811  C2813   1.549   .     S
C2812  C2815   1.581   .     S
C2812  H2818   1.098   .     S
C2812  H2817   1.101   .     S
C2813  H2819   1.105   .     S
C2813  C2814   1.476   .     S
C2814  C2815   1.513   .     S
C2814  H2821   1.100   .     S
C2814  H2820   1.106   .     S
C2815  H2822   1.100   .     S
C2815  C2829   1.517   .     S
C2823  H2824   1.098   .     S
C2823  H2826   1.092   .     S
C2823  H2825   1.095   .     S
O2827  C2828   1.465   .     S
C2828  C2829   1.553   .     S
C2828  H2831   1.104   .     S
C2828  H2830   1.099   .     S
C2829  H2832   1.100   .     S
C2829  H2833   1.092   .     S
C2835  H2837   1.105   .     S
C2835  H2836   1.102   .     S
C2838  H2839   1.100   .     S
C2838  H2840   1.098   .     S
C2841  H2842   1.104   .     S
C2841  C2864   1.605   .     S
C2843  H2845   1.101   .     S
C2843  H2844   1.104   .     S
C2847  H2849   1.105   .     S
C2847  H2848   1.101   .     S
C2850  H2852   1.106   .     S
C2850  H2851   1.095   .     S
C2854  H2857   1.101   .     S
C2854  H2855   1.097   .     S
C2854  H2856   1.102   .     S
C2858  H2859   1.098   .     S
C2858  H2860   1.103   .     S
C2861  H2862   1.098   .     S
C2861  H2863   1.101   .     S
C2864  C2865   1.549   .     S
C2864  H2867   1.095   .     S
C2864  H2866   1.100   .     S
C2865  H2868   1.098   .     S
C2865  H2869   1.104   .     S
C2870  H2871   1.106   .     S
C2870  H2872   1.099   .     S
C2873  H2875   1.101   .     S
C2873  H2874   1.097   .     S
O2877  H2879   0.978   .     S
C2887  C2901   1.397   .     S
C2887  H2910   1.095   .     S
C2887  C2888   1.424   .     S
C2888  C2890   1.452   .     S
C2888  C2893   1.389   .     S
C2889  C2892   1.439   .     S
C2889  C2890   1.402   .     S
C2889  C2906   1.424   .     S
C2890  C2891   1.379   .     S
C2891  C2897   1.403   .     S
C2891  C2896   1.427   .     S
C2892  C2916   1.574   .     S
C2892  C2895   1.402   .     S
C2893  C2903   1.424   .     S
C2893  C2894   1.369   .     S
C2894  C2897   1.420   .     S
C2894  C2902   1.414   .     S
C2895  C2896   1.384   .     S
C2895  H2908   1.093   .     S
C2896  C2899   1.392   .     S
C2897  C2898   1.368   .     S
C2898  C2900   1.449   .     S
C2898  H2909   1.099   .     S
C2899  C2900   1.408   .     S
C2899  H2907   1.096   .     S
C2900  C2917   1.542   .     S
C2901  C2906   1.398   .     S
C2901  H2913   1.095   .     S
C2902  H2911   1.086   .     S
C2902  N2904   1.433   .     S
C2903  N2904   1.418   .     S
C2903  H2912   1.094   .     S
N2904  H2905   1.007   .     S
C2906  C2914   1.498   .     S
C2914  C2915   1.540   .     S
C2914  H2927   1.099   .     S
C2914  H2926   1.102   .     S
C2915  H2924   1.110   .     S
C2915  H2925   1.101   .     S
C2915  C2916   1.508   .     S
C2916  O2958   1.407   .     S
C2916  H2923   1.099   .     S
C2917  H2921   1.099   .     S
C2917  C2918   1.462   .     S
C2917  H2922   1.098   .     S
C2918  C2919   1.600   .     S
C2918  H2920   1.104   .     S
C2918  H3238   1.092   .     S
C2919  H3276   1.095   .     S
C2919  H3277   1.097   .     S
C2919  C3000   1.557   .     S
C2928  C2950   1.433   .     S
C2928  C2929   1.459   .     S
C2928  C2934   1.452   .     S
C2929  C2931   1.467   .     S
C2929  C2930   1.396   .     S
C2930  C2935   1.431   .     S
C2930  C2940   1.392   .     S
C2931  C2936   1.384   .     S
C2931  C2932   1.454   .     S
C2932  C2933   1.408   .     S
C2932  C2946   1.467   .     S
C2933  C2934   1.439   .     S
C2933  C2988   1.539   .     S
C2934  C3335   1.543   .     S
C2935  C2941   1.371   .     S
C2935  C2937   1.412   .     S
C2936  C2937   1.502   .     S
C2936  C2939   1.473   .     S
C2937  C2944   1.404   .     S
C2938  N2949   1.410   .     S
C2938  H2945   1.088   .     S
C2938  C2944   1.470   .     S
C2939  C2947   1.390   .     S
C2939  N2949   1.321   .     S
C2940  C2948   1.422   .     S
C2940  O3334   1.411   .     S
C2941  C2942   1.414   .     S
C2941  C2959   1.457   .     S
C2942  C2943   1.413   .     S
C2942  C3235   1.506   .     S
C2943  C2944   1.456   .     S
C2943  C3304   1.486   .     S
C2946  C2947   1.400   .     S
C2946  C3328   1.526   .     S
C2947  C2952   1.559   .     S
C2948  C2972   1.507   .     S
C2948  C2950   1.422   .     S
C2950  H2951   1.093   .     S
C2952  H2957   1.102   .     S
C2952  C2953   1.644   .     S
C2952  H2956   1.102   .     S
C2953  H2954   1.097   .     S
C2953  O2958   1.433   .     S
C2953  H2955   1.103   .     S
C2959  C2960   1.390   .     S
C2959  O3334   1.350   .     S
C2960  C2961   1.418   .     S
C2960  H2971   1.092   .     S
C2961  C3235   1.388   .     S
C2961  C2962   1.497   .     S
C2962  H2969   1.095   .     S
C2962  H2970   1.099   .     S
C2962  C2963   1.535   .     S
C2963  H2968   1.095   .     S
C2963  H2967   1.100   .     S
C2963  C2964   1.625   .     S
C2964  H2966   1.106   .     S
C2964  H3237   1.103   .     S
C2964  C2965   1.552   .     S
C2965  O3359   1.245   .     S
C2965  O3358   1.290   .     S
C2972  C2973   1.580   .     S
C2972  H2986   1.100   .     S
C2972  H2987   1.102   .     S
C2973  H2985   1.099   .     S
C2973  C2974   1.558   .     S
C2973  H2984   1.102   .     S
C2974  O2975   1.418   .     S
C2974  H2982   1.095   .     S
C2974  H2983   1.109   .     S
O2975  C2976   1.398   .     S
C2976  C2977   1.524   .     S
C2976  H2981   1.098   .     S
C2976  C3324   1.577   .     S
C2977  H2979   1.098   .     S
C2977  C3361   1.530   .     S
C2977  H2980   1.097   .     S
C2978  C3198   1.449   .     S
C2978  C3022   1.444   .     S
C2978  C3361   1.430   .     S
C2988  H2994   1.099   .     S
C2988  C2989   1.534   .     S
C2988  H2995   1.095   .     S
C2989  H2993   1.103   .     S
C2989  C3328   1.562   .     S
C2989  C2990   1.609   .     S
C2990  H2992   1.100   .     S
C2990  H2991   1.099   .     S
C2990  C2997   1.611   .     S
C2996  C3000   1.559   .     S
C2996  H3221   1.100   .     S
C2996  H3233   1.098   .     S
C2996  S2998   1.856   .     S
C2997  H2999   1.100   .     S
C2997  S2998   1.875   .     S
C2997  H3234   1.099   .     S
C3000  C3001   1.539   .     S
C3000  H3005   1.105   .     S
C3001  C3002   1.491   .     S
C3001  O3275   1.222   .     S
C3002  H3004   1.101   .     S
C3002  H3003   1.096   .     S
C3002  C3269   1.594   .     S
C3006  C3011   1.433   .     S
C3006  C3008   1.405   .     S
C3006  C3026   1.419   .     S
C3007  C3008   1.367   .     S
C3007  C3010   1.440   .     S
C3007  C3021   1.453   .     S
C3008  C3009   1.445   .     S
C3009  C3015   1.446   .     S
C3009  C3014   1.353   .     S
C3010  C3013   1.415   .     S
C3010  C3198   1.421   .     S
C3011  C3018   1.339   .     S
C3011  C3012   1.370   .     S
C3012  C3015   1.361   .     S
C3012  C3017   1.368   .     S
C3013  C3014   1.371   .     S
C3013  C3281   1.585   .     S
C3014  H3027   1.097   .     S
C3015  H3028   1.097   .     S
C3016  C3026   1.425   .     S
C3016  H3031   1.091   .     S
C3016  C3021   1.407   .     S
C3017  N3019   1.370   .     S
C3017  C3032   1.564   .     S
C3018  H3029   1.096   .     S
C3018  N3019   1.459   .     S
N3019  H3020   1.011   .     S
C3021  C3022   1.443   .     S
C3022  C3324   1.528   .     S
C3023  H3030   1.095   .     S
C3023  C3361   1.385   .     S
C3023  C3024   1.440   .     S
C3024  C3025   1.363   .     S
C3024  H3362   1.097   .     S
C3025  C3198   1.414   .     S
C3025  H3203   1.085   .     S
C3026  C3284   1.593   .     S
C3032  H3046   1.098   .     S
C3032  H3047   1.101   .     S
C3032  C3033   1.531   .     S
C3033  H3045   1.099   .     S
C3033  H3243   1.100   .     S
C3033  C3034   1.515   .     S
C3034  H3044   1.099   .     S
C3034  C3035   1.482   .     S
C3034  C3346   1.560   .     S
C3035  C3037   1.549   .     S
C3035  O3036   1.192   .     S
C3037  C3322   1.596   .     S
C3037  H3043   1.096   .     S
C3037  C3038   1.531   .     S
C3038  H3041   1.103   .     S
C3038  H3042   1.095   .     S
C3038  C3039   1.592   .     S
C3039  H3040   1.101   .     S
C3039  C3319   1.599   .     S
C3039  C3051   1.573   .     S
C3048  C3049   1.406   .     S
C3048  C3051   1.473   .     S
C3048  C3056   1.478   .     S
C3049  C3068   1.444   .     S
C3049  C3050   1.423   .     S
C3050  C3054   1.448   .     S
C3050  C3066   1.451   .     S
C3051  C3053   1.404   .     S
C3052  N3065   1.332   .     S
C3052  H3077   1.099   .     S
C3052  C3054   1.434   .     S
C3053  C3322   1.566   .     S
C3053  C3066   1.435   .     S
C3054  C3063   1.382   .     S
C3055  C3058   1.413   .     S
C3055  C3056   1.407   .     S
C3055  C3061   1.371   .     S
C3056  C3057   1.428   .     S
C3057  C3319   1.507   .     S
C3057  C3060   1.511   .     S
C3058  H3079   1.086   .     S
C3058  C3059   1.397   .     S
C3059  H3062   1.090   .     S
C3059  C3060   1.354   .     S
C3060  C3081   1.581   .     S
C3061  C3068   1.407   .     S
C3061  H3078   1.086   .     S
C3063  C3064   1.393   .     S
C3063  C3069   1.548   .     S
C3064  C3339   1.493   .     S
C3064  C3067   1.474   .     S
N3065  C3068   1.381   .     S
C3066  C3067   1.448   .     S
C3067  H3080   1.087   .     S
C3069  H3075   1.098   .     S
C3069  H3076   1.106   .     S
C3069  C3070   1.588   .     S
C3070  H3074   1.094   .     S
C3070  C3339   1.505   .     S
C3070  C3071   1.548   .     S
C3071  H3072   1.105   .     S
C3071  O3089   1.476   .     S
C3071  H3073   1.089   .     S
C3081  C3082   1.549   .     S
C3081  H3088   1.097   .     S
C3081  H3357   1.101   .     S
C3082  H3086   1.097   .     S
C3082  H3087   1.101   .     S
C3082  C3083   1.557   .     S
C3083  H3084   1.103   .     S
C3083  H3085   1.102   .     S
C3083  H3195   1.101   .     S
O3089  C3090   1.448   .     S
C3090  H3099   1.101   .     S
C3090  H3100   1.099   .     S
C3090  C3091   1.604   .     S
C3091  C3092   1.531   .     S
C3091  H3098   1.101   .     S
C3091  H3097   1.102   .     S
C3092  C3093   1.619   .     S
C3092  H3096   1.097   .     S
C3092  C3331   1.549   .     S
C3093  H3095   1.097   .     S
C3093  H3094   1.100   .     S
C3093  C3113   1.554   .     S
C3101  C3129   1.436   .     S
C3101  C3103   1.467   .     S
C3101  C3102   1.389   .     S
C3102  C3107   1.463   .     S
C3102  C3110   1.399   .     S
C3103  C3108   1.409   .     S
C3103  C3294   1.520   .     S
C3104  C3105   1.394   .     S
C3104  H3367   1.091   .     S
C3104  C3123   1.449   .     S
C3105  H3366   1.085   .     S
C3105  C3106   1.416   .     S
C3106  C3364   1.401   .     S
C3106  H3365   1.094   .     S
C3107  C3109   1.413   .     S
C3107  C3111   1.448   .     S
C3108  H3131   1.090   .     S
C3108  C3109   1.370   .     S
C3109  C3114   1.401   .     S
C3110  C3116   1.432   .     S
C3110  C3119   1.438   .     S
C3111  C3118   1.446   .     S
C3111  C3112   1.398   .     S
C3112  H3132   1.087   .     S
C3112  C3113   1.382   .     S
C3113  C3114   1.446   .     S
C3114  C3331   1.469   .     S
H3115  C3363   1.099   .     S
C3116  C3117   1.396   .     S
C3116  C3120   1.464   .     S
C3117  C3123   1.441   .     S
C3117  C3129   1.439   .     S
C3118  C3133   1.597   .     S
C3118  C3119   1.458   .     S
C3119  C3122   1.447   .     S
C3120  C3121   1.445   .     S
C3120  C3125   1.470   .     S
C3121  C3126   1.565   .     S
C3121  C3122   1.372   .     S
C3122  H3130   1.098   .     S
C3123  C3124   1.404   .     S
C3124  C3364   1.474   .     S
C3124  C3125   1.440   .     S
C3125  C3316   1.577   .     S
C3126  H3128   1.097   .     S
C3126  H3127   1.101   .     S
C3126  C3137   1.543   .     S
C3129  C3363   1.532   .     S
C3133  H3136   1.099   .     S
C3133  C3134   1.547   .     S
C3133  H3241   1.094   .     S
C3134  H3135   1.102   .     S
C3134  H3315   1.100   .     S
C3134  H3240   1.096   .     S
C3137  H3242   1.096   .     S
C3137  C3316   1.624   .     S
C3137  O3138   1.483   .     S
O3138  C3139   1.463   .     S
C3139  C3140   1.522   .     S
C3139  H3147   1.094   .     S
C3139  H3146   1.103   .     S
C3140  H3144   1.108   .     S
C3140  C3141   1.577   .     S
C3140  H3145   1.093   .     S
C3141  H3143   1.097   .     S
C3141  H3142   1.105   .     S
C3141  C3169   1.584   .     S
C3148  C3200   1.448   .     S
C3148  H3222   1.088   .     S
C3148  C3149   1.356   .     S
C3149  C3152   1.404   .     S
C3149  C3227   1.538   .     S
C3150  C3151   1.397   .     S
C3150  C3155   1.381   .     S
C3150  C3152   1.445   .     S
C3151  S3154   1.828   .     S
C3151  C3196   1.426   .     S
C3152  C3153   1.359   .     S
C3153  C3199   1.457   .     S
C3153  S3154   1.792   .     S
C3155  C3156   1.406   .     S
C3155  C3342   1.604   .     S
C3156  C3157   1.560   .     S
C3156  C3197   1.394   .     S
C3157  C3160   1.582   .     S
C3157  H3159   1.100   .     S
C3157  H3158   1.095   .     S
C3160  C3256   1.583   .     S
C3160  H3266   1.098   .     S
C3160  O3290   1.490   .     S
C3161  C3258   1.580   .     S
C3161  C3162   1.635   .     S
C3161  H3259   1.094   .     S
C3161  C3257   1.578   .     S
C3162  H3194   1.103   .     S
C3162  H3239   1.102   .     S
C3162  C3288   1.583   .     S
C3163  H3193   1.110   .     S
C3163  C3164   1.588   .     S
C3163  H3327   1.097   .     S
C3163  H3192   1.103   .     S
C3164  C3187   1.534   .     S
C3164  H3190   1.101   .     S
C3164  H3191   1.102   .     S
C3165  C3170   1.467   .     S
C3165  C3166   1.437   .     S
C3165  C3205   1.472   .     S
C3166  C3168   1.383   .     S
C3166  C3213   1.484   .     S
C3167  C3168   1.413   .     S
C3167  C3206   1.403   .     S
C3167  C3169   1.491   .     S
C3168  H3186   1.091   .     S
C3169  C3208   1.449   .     S
C3170  C3171   1.432   .     S
C3170  C3351   1.505   .     S
C3171  C3174   1.330   .     S
C3171  C3172   1.331   .     S
C3172  C3173   1.355   .     S
C3172  C3204   1.370   .     S
C3173  N3175   1.405   .     S
C3173  C3278   1.477   .     S
C3174  C3176   1.468   .     S
C3174  N3175   1.455   .     S
N3175  H3185   1.014   .     S
C3176  H3183   1.102   .     S
C3176  H3184   1.103   .     S
C3176  C3177   1.608   .     S
C3177  H3189   1.096   .     S
C3177  C3178   1.575   .     S
C3177  C3351   1.608   .     S
C3178  H3182   1.100   .     S
C3178  H3188   1.098   .     S
C3178  C3179   1.537   .     S
C3179  H3291   1.096   .     S
C3179  H3180   1.098   .     S
C3179  H3181   1.101   .     S
C3187  C3211   1.467   .     S
C3187  C3278   1.446   .     S
C3196  C3197   1.470   .     S
C3196  C3246   1.548   .     S
C3197  C3249   1.577   .     S
C3199  H3202   1.092   .     S
C3199  C3200   1.412   .     S
C3200  H3201   1.089   .     S
C3204  C3205   1.410   .     S
C3204  C3211   1.477   .     S
C3205  C3206   1.468   .     S
C3206  C3207   1.425   .     S
C3207  C3210   1.393   .     S
C3207  C3209   1.411   .     S
C3208  C3354   1.490   .     S
C3208  C3209   1.374   .     S
C3209  O3280   1.348   .     S
C3210  H3212   1.093   .     S
C3210  C3211   1.364   .     S
C3213  C3214   1.565   .     S
C3213  H3220   1.100   .     S
C3213  H3245   1.095   .     S
C3214  H3219   1.100   .     S
C3214  H3244   1.097   .     S
C3214  C3215   1.504   .     S
C3215  H3217   1.105   .     S
C3215  H3218   1.099   .     S
C3215  H3216   1.103   .     S
H3223  C3363   1.101   .     S
O3224  C3225   1.452   .     S
O3224  C3364   1.380   .     S
C3225  H3232   1.101   .     S
C3225  C3226   1.534   .     S
C3225  H3231   1.098   .     S
C3226  H3229   1.101   .     S
C3226  H3230   1.099   .     S
C3226  C3227   1.634   .     S
C3227  H3228   1.100   .     S
C3227  C3342   1.550   .     S
C3235  H3236   1.088   .     S
C3246  H3250   1.103   .     S
C3246  H3251   1.095   .     S
C3246  C3247   1.519   .     S
C3247  C3267   1.554   .     S
C3247  H3252   1.092   .     S
C3247  C3248   1.512   .     S
C3248  C3249   1.637   .     S
C3248  H3253   1.098   .     S
C3248  C3268   1.534   .     S
C3249  H3255   1.105   .     S
C3249  H3254   1.093   .     S
C3256  H3260   1.106   .     S
C3256  H3261   1.098   .     S
C3256  C3258   1.552   .     S
C3257  H3263   1.098   .     S
C3257  O3290   1.393   .     S
C3257  H3262   1.100   .     S
C3258  H3264   1.095   .     S
C3258  H3265   1.097   .     S
C3267  C3269   1.519   .     S
C3267  H3270   1.096   .     S
C3267  H3271   1.100   .     S
C3268  H3272   1.101   .     S
C3268  H3273   1.095   .     S
C3268  C3269   1.523   .     S
C3269  H3274   1.093   .     S
C3278  H3279   1.092   .     S
O3280  C3288   1.487   .     S
C3281  H3283   1.103   .     S
C3281  O3308   1.464   .     S
C3281  H3282   1.097   .     S
C3284  H3285   1.103   .     S
C3284  H3286   1.100   .     S
C3284  H3287   1.101   .     S
C3288  H3289   1.099   .     S
C3288  C3354   1.541   .     S
C3292  H3297   1.105   .     S
C3292  C3293   1.545   .     S
C3292  C3294   1.576   .     S
C3292  C3363   1.499   .     S
C3293  C3296   1.547   .     S
C3293  H3299   1.105   .     S
C3293  H3298   1.096   .     S
C3294  H3300   1.105   .     S
C3294  C3295   1.557   .     S
C3295  H3301   1.096   .     S
C3295  H3302   1.103   .     S
C3295  C3296   1.553   .     S
C3296  H3303   1.095   .     S
C3296  C3310   1.547   .     S
C3304  H3306   1.105   .     S
C3304  H3307   1.105   .     S
C3304  H3305   1.101   .     S
O3308  C3309   1.456   .     S
C3309  C3310   1.562   .     S
C3309  H3311   1.100   .     S
C3309  H3312   1.100   .     S
C3310  H3314   1.106   .     S
C3310  H3313   1.102   .     S
C3316  H3317   1.104   .     S
C3316  H3318   1.099   .     S
C3319  H3320   1.102   .     S
C3319  H3321   1.102   .     S
C3322  H3323   1.095   .     S
C3322  C3345   1.580   .     S
C3324  H3326   1.097   .     S
C3324  H3325   1.095   .     S
C3328  H3329   1.097   .     S
C3328  H3330   1.094   .     S
C3331  H3332   1.103   .     S
C3331  H3333   1.102   .     S
C3335  H3336   1.104   .     S
C3335  H3337   1.101   .     S
C3335  H3338   1.101   .     S
C3339  H3340   1.102   .     S
C3339  H3341   1.103   .     S
C3342  H3343   1.101   .     S
C3342  H3344   1.101   .     S
C3345  C3346   1.501   .     S
C3345  H3348   1.101   .     S
C3345  H3347   1.099   .     S
C3346  H3349   1.097   .     S
C3346  H3350   1.104   .     S
C3351  H3353   1.107   .     S
C3351  H3352   1.091   .     S
C3354  H3356   1.111   .     S
C3354  H3355   1.101   .     S
O3358  H3360   0.967   .     S
C3368  C3382   1.397   .     S
C3368  H3391   1.093   .     S
C3368  C3369   1.399   .     S
C3369  C3374   1.373   .     S
C3369  C3371   1.426   .     S
C3370  C3371   1.463   .     S
C3370  C3387   1.405   .     S
C3370  C3373   1.460   .     S
C3371  C3372   1.405   .     S
C3372  C3377   1.430   .     S
C3372  C3378   1.444   .     S
C3373  C3376   1.460   .     S
C3373  C3397   1.539   .     S
C3374  C3384   1.364   .     S
C3374  C3375   1.374   .     S
C3375  C3378   1.431   .     S
C3375  C3383   1.395   .     S
C3376  C3377   1.442   .     S
C3376  H3389   1.093   .     S
C3377  C3380   1.441   .     S
C3378  C3379   1.349   .     S
C3379  C3381   1.412   .     S
C3379  H3390   1.093   .     S
C3380  H3388   1.081   .     S
C3380  C3381   1.409   .     S
C3381  C3398   1.564   .     S
C3382  H3394   1.090   .     S
C3382  C3387   1.399   .     S
C3383  H3392   1.094   .     S
C3383  N3385   1.402   .     S
C3384  N3385   1.455   .     S
C3384  H3393   1.083   .     S
N3385  H3386   1.009   .     S
C3387  C3395   1.608   .     S
C3395  H3407   1.099   .     S
C3395  H3408   1.102   .     S
C3395  C3396   1.559   .     S
C3396  H3406   1.096   .     S
C3396  H3405   1.098   .     S
C3396  C3397   1.540   .     S
C3397  H3404   1.098   .     S
C3397  O3439   1.439   .     S
C3398  H3403   1.094   .     S
C3398  C3399   1.545   .     S
C3398  H3402   1.099   .     S
C3399  H3401   1.094   .     S
C3399  H3719   1.099   .     S
C3399  C3400   1.615   .     S
C3400  H3757   1.099   .     S
C3400  H3758   1.097   .     S
C3400  C3481   1.601   .     S
C3409  C3410   1.468   .     S
C3409  C3415   1.449   .     S
C3409  C3431   1.450   .     S
C3410  C3412   1.392   .     S
C3410  C3411   1.426   .     S
C3411  C3416   1.379   .     S
C3411  C3421   1.426   .     S
C3412  C3413   1.412   .     S
C3412  C3417   1.378   .     S
C3413  C3414   1.437   .     S
C3413  C3427   1.460   .     S
C3414  C3415   1.440   .     S
C3414  C3469   1.506   .     S
C3415  C3816   1.534   .     S
C3416  C3418   1.438   .     S
C3416  C3422   1.462   .     S
C3417  C3420   1.425   .     S
C3417  C3418   1.414   .     S
C3418  C3425   1.384   .     S
C3419  H3426   1.091   .     S
C3419  C3425   1.392   .     S
C3419  N3430   1.316   .     S
C3420  C3428   1.457   .     S
C3420  N3430   1.353   .     S
C3421  O3815   1.435   .     S
C3421  C3429   1.433   .     S
C3422  C3423   1.406   .     S
C3422  C3440   1.395   .     S
C3423  C3424   1.469   .     S
C3423  C3716   1.418   .     S
C3424  C3425   1.421   .     S
C3424  C3785   1.551   .     S
C3427  C3809   1.498   .     S
C3427  C3428   1.391   .     S
C3428  C3433   1.562   .     S
C3429  C3431   1.431   .     S
C3429  C3453   1.600   .     S
C3431  H3432   1.083   .     S
C3433  C3434   1.526   .     S
C3433  H3437   1.102   .     S
C3433  H3438   1.096   .     S
C3434  H3435   1.098   .     S
C3434  O3439   1.441   .     S
C3434  H3436   1.102   .     S
C3440  C3441   1.397   .     S
C3440  O3815   1.411   .     S
C3441  H3452   1.091   .     S
C3441  C3442   1.350   .     S
C3442  C3716   1.440   .     S
C3442  C3443   1.514   .     S
C3443  H3450   1.102   .     S
C3443  H3451   1.092   .     S
C3443  C3444   1.542   .     S
C3444  H3449   1.103   .     S
C3444  C3445   1.614   .     S
C3444  H3448   1.100   .     S
C3445  C3446   1.512   .     S
C3445  H3447   1.091   .     S
C3445  H3718   1.103   .     S
C3446  O3840   1.217   .     S
C3446  O3839   1.303   .     S
C3453  H3467   1.097   .     S
C3453  C3454   1.529   .     S
C3453  H3468   1.099   .     S
C3454  C3455   1.601   .     S
C3454  H3466   1.098   .     S
C3454  H3465   1.100   .     S
C3455  O3456   1.413   .     S
C3455  H3463   1.098   .     S
C3455  H3464   1.098   .     S
O3456  C3457   1.439   .     S
C3457  C3458   1.544   .     S
C3457  H3462   1.110   .     S
C3457  C3805   1.538   .     S
C3458  C3842   1.500   .     S
C3458  H3460   1.098   .     S
C3458  H3461   1.105   .     S
C3459  C3842   1.423   .     S
C3459  C3503   1.457   .     S
C3459  C3679   1.452   .     S
C3469  C3470   1.529   .     S
C3469  H3476   1.099   .     S
C3469  H3475   1.100   .     S
C3470  C3471   1.621   .     S
C3470  C3809   1.547   .     S
C3470  H3474   1.094   .     S
C3471  C3478   1.483   .     S
C3471  H3473   1.104   .     S
C3471  H3472   1.099   .     S
C3477  H3702   1.105   .     S
C3477  S3479   1.862   .     S
C3477  C3481   1.639   .     S
C3477  H3714   1.093   .     S
C3478  H3480   1.101   .     S
C3478  H3715   1.095   .     S
C3478  S3479   1.829   .     S
C3481  C3482   1.540   .     S
C3481  H3486   1.098   .     S
C3482  O3756   1.217   .     S
C3482  C3483   1.557   .     S
C3483  H3484   1.096   .     S
C3483  H3485   1.103   .     S
C3483  C3750   1.567   .     S
C3487  C3507   1.425   .     S
C3487  C3489   1.443   .     S
C3487  C3492   1.427   .     S
C3488  C3489   1.441   .     S
C3488  C3491   1.436   .     S
C3488  C3502   1.400   .     S
C3489  C3490   1.455   .     S
C3490  C3496   1.381   .     S
C3490  C3495   1.368   .     S
C3491  C3494   1.426   .     S
C3491  C3679   1.464   .     S
C3492  C3499   1.351   .     S
C3492  C3493   1.375   .     S
C3493  C3496   1.453   .     S
C3493  C3498   1.426   .     S
C3494  C3495   1.387   .     S
C3494  C3762   1.565   .     S
C3495  H3508   1.087   .     S
C3496  H3509   1.090   .     S
C3497  C3507   1.416   .     S
C3497  H3512   1.087   .     S
C3497  C3502   1.477   .     S
C3498  N3500   1.429   .     S
C3498  C3513   1.590   .     S
C3499  H3510   1.087   .     S
C3499  N3500   1.420   .     S
N3500  H3501   1.012   .     S
C3502  C3503   1.446   .     S
C3503  C3805   1.525   .     S
C3504  H3511   1.090   .     S
C3504  C3842   1.434   .     S
C3504  C3505   1.414   .     S
C3505  H3843   1.082   .     S
C3505  C3506   1.401   .     S
C3506  C3679   1.392   .     S
C3506  H3684   1.095   .     S
C3507  C3765   1.521   .     S
C3513  H3527   1.093   .     S
C3513  H3528   1.105   .     S
C3513  C3514   1.549   .     S
C3514  H3526   1.096   .     S
C3514  H3724   1.096   .     S
C3514  C3515   1.534   .     S
C3515  C3516   1.600   .     S
C3515  H3525   1.102   .     S
C3515  C3827   1.645   .     S
C3516  O3517   1.218   .     S
C3516  C3518   1.504   .     S
C3518  H3524   1.101   .     S
C3518  C3519   1.574   .     S
C3518  C3803   1.618   .     S
C3519  H3522   1.102   .     S
C3519  C3520   1.535   .     S
C3519  H3523   1.096   .     S
C3520  H3521   1.106   .     S
C3520  C3800   1.627   .     S
C3520  C3532   1.559   .     S
C3529  C3530   1.422   .     S
C3529  C3532   1.427   .     S
C3529  C3537   1.421   .     S
C3530  C3531   1.402   .     S
C3530  C3549   1.442   .     S
C3531  C3547   1.468   .     S
C3531  C3535   1.413   .     S
C3532  C3534   1.444   .     S
C3533  H3558   1.087   .     S
C3533  C3535   1.403   .     S
C3533  N3546   1.370   .     S
C3534  C3547   1.409   .     S
C3534  C3803   1.552   .     S
C3535  C3544   1.423   .     S
C3536  C3537   1.427   .     S
C3536  C3539   1.425   .     S
C3536  C3542   1.391   .     S
C3537  C3538   1.418   .     S
C3538  C3800   1.530   .     S
C3538  C3541   1.442   .     S
C3539  H3560   1.087   .     S
C3539  C3540   1.363   .     S
C3540  C3541   1.441   .     S
C3540  H3543   1.094   .     S
C3541  C3562   1.562   .     S
C3542  C3549   1.412   .     S
C3542  H3559   1.093   .     S
C3544  C3545   1.387   .     S
C3544  C3550   1.514   .     S
C3545  C3548   1.412   .     S
C3545  C3820   1.578   .     S
N3546  C3549   1.372   .     S
C3547  C3548   1.426   .     S
C3548  H3561   1.082   .     S
C3550  H3557   1.097   .     S
C3550  H3556   1.105   .     S
C3550  C3551   1.586   .     S
C3551  C3820   1.555   .     S
C3551  H3555   1.103   .     S
C3551  C3552   1.577   .     S
C3552  H3553   1.100   .     S
C3552  H3554   1.096   .     S
C3552  O3570   1.478   .     S
C3562  H3569   1.093   .     S
C3562  H3838   1.094   .     S
C3562  C3563   1.556   .     S
C3563  C3564   1.508   .     S
C3563  H3567   1.097   .     S
C3563  H3568   1.103   .     S
C3564  H3676   1.098   .     S
C3564  H3565   1.099   .     S
C3564  H3566   1.092   .     S
O3570  C3571   1.436   .     S
C3571  H3581   1.102   .     S
C3571  H3580   1.098   .     S
C3571  C3572   1.613   .     S
C3572  H3579   1.099   .     S
C3572  C3573   1.596   .     S
C3572  H3578   1.104   .     S
C3573  C3574   1.558   .     S
C3573  H3577   1.098   .     S
C3573  C3812   1.626   .     S
C3574  H3575   1.101   .     S
C3574  H3576   1.091   .     S
C3574  C3594   1.559   .     S
C3582  C3584   1.443   .     S
C3582  C3583   1.429   .     S
C3582  C3610   1.435   .     S
C3583  C3591   1.402   .     S
C3583  C3588   1.430   .     S
C3584  C3589   1.424   .     S
C3584  C3775   1.531   .     S
C3585  C3586   1.407   .     S
C3585  H3848   1.093   .     S
C3585  C3604   1.434   .     S
C3586  C3587   1.372   .     S
C3586  H3847   1.087   .     S
C3587  C3845   1.435   .     S
C3587  H3846   1.089   .     S
C3588  C3590   1.456   .     S
C3588  C3592   1.459   .     S
C3589  H3612   1.098   .     S
C3589  C3590   1.379   .     S
C3590  C3595   1.385   .     S
C3591  C3600   1.436   .     S
C3591  C3597   1.434   .     S
C3592  C3593   1.396   .     S
C3592  C3599   1.472   .     S
C3593  H3613   1.084   .     S
C3593  C3594   1.444   .     S
C3594  C3595   1.367   .     S
C3595  C3812   1.549   .     S
H3596  C3844   1.103   .     S
C3597  C3598   1.432   .     S
C3597  C3601   1.411   .     S
C3598  C3604   1.403   .     S
C3598  C3610   1.405   .     S
C3599  C3600   1.436   .     S
C3599  C3614   1.593   .     S
C3600  C3603   1.428   .     S
C3601  C3606   1.443   .     S
C3601  C3602   1.419   .     S
C3602  C3603   1.373   .     S
C3602  C3607   1.574   .     S
C3603  H3611   1.085   .     S
C3604  C3605   1.419   .     S
C3605  C3606   1.456   .     S
C3605  C3845   1.457   .     S
C3606  C3797   1.569   .     S
C3607  H3609   1.105   .     S
C3607  C3618   1.558   .     S
C3607  H3608   1.097   .     S
C3610  C3844   1.593   .     S
C3614  H3617   1.097   .     S
C3614  H3722   1.096   .     S
C3614  C3615   1.576   .     S
C3615  H3721   1.104   .     S
C3615  H3796   1.097   .     S
C3615  H3616   1.100   .     S
C3618  C3797   1.567   .     S
C3618  H3723   1.102   .     S
C3618  O3619   1.498   .     S
O3619  C3620   1.445   .     S
C3620  H3627   1.092   .     S
C3620  C3621   1.582   .     S
C3620  H3628   1.101   .     S
C3621  H3625   1.096   .     S
C3621  C3622   1.606   .     S
C3621  H3626   1.103   .     S
C3622  H3624   1.101   .     S
C3622  H3623   1.106   .     S
C3622  C3650   1.549   .     S
C3629  H3703   1.088   .     S
C3629  C3681   1.440   .     S
C3629  C3630   1.413   .     S
C3630  C3633   1.435   .     S
C3630  C3708   1.552   .     S
C3631  C3632   1.404   .     S
C3631  C3633   1.410   .     S
C3631  C3636   1.373   .     S
C3632  C3677   1.433   .     S
C3632  S3635   1.802   .     S
C3633  C3634   1.397   .     S
C3634  C3680   1.435   .     S
C3634  S3635   1.826   .     S
C3636  C3823   1.598   .     S
C3636  C3637   1.508   .     S
C3637  C3638   1.543   .     S
C3637  C3678   1.419   .     S
C3638  H3640   1.094   .     S
C3638  H3639   1.096   .     S
C3638  C3641   1.583   .     S
C3641  O3771   1.422   .     S
C3641  C3737   1.560   .     S
C3641  H3747   1.098   .     S
C3642  C3643   1.509   .     S
C3642  C3739   1.572   .     S
C3642  C3738   1.583   .     S
C3642  H3740   1.097   .     S
C3643  H3675   1.094   .     S
C3643  C3769   1.580   .     S
C3643  H3720   1.099   .     S
C3644  H3808   1.095   .     S
C3644  H3673   1.094   .     S
C3644  C3645   1.528   .     S
C3644  H3674   1.100   .     S
C3645  H3671   1.094   .     S
C3645  C3668   1.557   .     S
C3645  H3672   1.101   .     S
C3646  C3651   1.482   .     S
C3646  C3686   1.454   .     S
C3646  C3647   1.453   .     S
C3647  C3649   1.459   .     S
C3647  C3694   1.624   .     S
C3648  C3650   1.457   .     S
C3648  C3687   1.442   .     S
C3648  C3649   1.425   .     S
C3649  H3667   1.094   .     S
C3650  C3689   1.373   .     S
C3651  C3832   1.470   .     S
C3651  C3652   1.430   .     S
C3652  C3653   1.323   .     S
C3652  C3655   1.373   .     S
C3653  C3685   1.359   .     S
C3653  C3654   1.399   .     S
C3654  C3759   1.438   .     S
C3654  N3656   1.339   .     S
C3655  C3657   1.443   .     S
C3655  N3656   1.486   .     S
N3656  H3666   1.014   .     S
C3657  H3664   1.092   .     S
C3657  H3665   1.110   .     S
C3657  C3658   1.541   .     S
C3658  C3832   1.619   .     S
C3658  H3670   1.102   .     S
C3658  C3659   1.598   .     S
C3659  C3660   1.534   .     S
C3659  H3663   1.098   .     S
C3659  H3669   1.100   .     S
C3660  H3662   1.107   .     S
C3660  H3772   1.094   .     S
C3660  H3661   1.105   .     S
C3668  C3759   1.402   .     S
C3668  C3692   1.475   .     S
C3677  C3678   1.397   .     S
C3677  C3727   1.469   .     S
C3678  C3730   1.566   .     S
C3680  C3681   1.388   .     S
C3680  H3683   1.088   .     S
C3681  H3682   1.088   .     S
C3685  C3692   1.402   .     S
C3685  C3686   1.428   .     S
C3686  C3687   1.490   .     S
C3687  C3688   1.429   .     S
C3688  C3690   1.419   .     S
C3688  C3691   1.396   .     S
C3689  C3835   1.516   .     S
C3689  C3690   1.414   .     S
C3690  O3761   1.345   .     S
C3691  C3692   1.415   .     S
C3691  H3693   1.095   .     S
C3694  H3701   1.108   .     S
C3694  H3726   1.095   .     S
C3694  C3695   1.639   .     S
C3695  H3725   1.097   .     S
C3695  C3696   1.552   .     S
C3695  H3700   1.093   .     S
C3696  H3697   1.100   .     S
C3696  H3699   1.107   .     S
C3696  H3698   1.101   .     S
H3704  C3844   1.104   .     S
O3705  C3706   1.465   .     S
O3705  C3845   1.406   .     S
C3706  C3707   1.514   .     S
C3706  H3713   1.104   .     S
C3706  H3712   1.101   .     S
C3707  C3708   1.531   .     S
C3707  H3710   1.104   .     S
C3707  H3711   1.100   .     S
C3708  H3709   1.102   .     S
C3708  C3823   1.613   .     S
C3716  H3717   1.085   .     S
C3727  H3731   1.096   .     S
C3727  H3732   1.103   .     S
C3727  C3728   1.531   .     S
C3728  C3729   1.485   .     S
C3728  C3748   1.565   .     S
C3728  H3733   1.101   .     S
C3729  H3734   1.100   .     S
C3729  C3730   1.562   .     S
C3729  C3749   1.538   .     S
C3730  H3735   1.101   .     S
C3730  H3736   1.102   .     S
C3737  H3741   1.097   .     S
C3737  H3742   1.102   .     S
C3737  C3739   1.598   .     S
C3738  O3771   1.418   .     S
C3738  H3743   1.090   .     S
C3738  H3744   1.103   .     S
C3739  H3746   1.103   .     S
C3739  H3745   1.094   .     S
C3748  H3751   1.106   .     S
C3748  C3750   1.566   .     S
C3748  H3752   1.106   .     S
C3749  H3753   1.099   .     S
C3749  C3750   1.638   .     S
C3749  H3754   1.097   .     S
C3750  H3755   1.097   .     S
C3759  H3760   1.094   .     S
O3761  C3769   1.508   .     S
C3762  O3789   1.459   .     S
C3762  H3763   1.096   .     S
C3762  H3764   1.106   .     S
C3765  H3766   1.095   .     S
C3765  H3767   1.108   .     S
C3765  H3768   1.091   .     S
C3769  C3835   1.547   .     S
C3769  H3770   1.108   .     S
C3773  H3778   1.097   .     S
C3773  C3844   1.511   .     S
C3773  C3774   1.537   .     S
C3773  C3775   1.485   .     S
C3774  H3779   1.104   .     S
C3774  C3777   1.612   .     S
C3774  H3780   1.092   .     S
C3775  H3781   1.105   .     S
C3775  C3776   1.535   .     S
C3776  H3782   1.101   .     S
C3776  H3783   1.100   .     S
C3776  C3777   1.616   .     S
C3777  H3784   1.096   .     S
C3777  C3791   1.577   .     S
C3785  H3787   1.093   .     S
C3785  H3786   1.100   .     S
C3785  H3788   1.102   .     S
O3789  C3790   1.469   .     S
C3790  C3791   1.585   .     S
C3790  H3793   1.101   .     S
C3790  H3792   1.099   .     S
C3791  H3794   1.096   .     S
C3791  H3795   1.103   .     S
C3797  H3799   1.105   .     S
C3797  H3798   1.107   .     S
C3800  H3802   1.100   .     S
C3800  H3801   1.101   .     S
C3803  H3804   1.102   .     S
C3803  C3826   1.586   .     S
C3805  H3806   1.097   .     S
C3805  H3807   1.092   .     S
C3809  H3810   1.099   .     S
C3809  H3811   1.101   .     S
C3812  H3813   1.100   .     S
C3812  H3814   1.104   .     S
C3816  H3819   1.096   .     S
C3816  H3817   1.103   .     S
C3816  H3818   1.102   .     S
C3820  H3821   1.098   .     S
C3820  H3822   1.097   .     S
C3823  H3824   1.100   .     S
C3823  H3825   1.100   .     S
C3826  H3829   1.097   .     S
C3826  C3827   1.532   .     S
C3826  H3828   1.099   .     S
C3827  H3830   1.094   .     S
C3827  H3831   1.103   .     S
C3832  H3833   1.101   .     S
C3832  H3834   1.098   .     S
C3835  H3836   1.098   .     S
C3835  H3837   1.101   .     S
O3839  H3841   0.974   .     S
